MODEL 1
REMARK VINA RESULT:      -8.8      0.000      0.000
REMARK  Name = 5280805
REMARK                            x       y       z     vdW  Elec       q    Type
REMARK                         _______ _______ _______ _____ _____    ______ ____
ROOT
ATOM      1  O   LIG    1       13.518 148.419  32.071  0.00  0.00    -0.331 OA
ATOM      2  C   LIG    1       13.011 147.226  32.664  0.00  0.00    +0.340 C 
ATOM      3  C   LIG    1       14.025 146.642  33.648  0.00  0.00    +0.214 C 
ATOM      4  C   LIG    1       14.457 147.680  34.683  0.00  0.00    +0.180 C 
ATOM      5  C   LIG    1       14.843 149.000  34.016  0.00  0.00    +0.177 C 
ATOM     38  C   LIG    1       13.760 149.448  33.032  0.00  0.00    +0.179 C 
ENDROOT
BRANCH   5   6
ATOM      6  O   LIG    1       15.014 150.001  35.016  0.00  0.00    -0.386 OA
ATOM      7  H   LIG    1       15.967 150.164  35.118  0.00  0.00    +0.210 HD
ENDBRANCH   5   6
BRANCH   4   8
ATOM      8  O   LIG    1       15.597 147.196  35.395  0.00  0.00    -0.386 OA
ATOM      9  H   LIG    1       15.728 146.267  35.138  0.00  0.00    +0.210 HD
ENDBRANCH   4   8
BRANCH   3  10
ATOM     10  O   LIG    1       13.418 145.534  34.312  0.00  0.00    -0.383 OA
ATOM     11  H   LIG    1       14.031 144.781  34.263  0.00  0.00    +0.210 HD
ENDBRANCH   3  10
BRANCH   2  12
ATOM     12  O   LIG    1       12.767 146.250  31.652  0.00  0.00    -0.453 OA
BRANCH  12  13
ATOM     13  C   LIG    1       11.736 146.628  30.821  0.00  0.00    +0.214 A 
ATOM     14  C   LIG    1       10.544 147.263  31.433  0.00  0.00    +0.238 A 
ATOM     15  C   LIG    1        9.474 147.671  30.509  0.00  0.00    +0.109 A 
ATOM     16  C   LIG    1        8.309 148.276  30.988  0.00  0.00    +0.135 A 
ATOM     17  C   LIG    1        7.311 148.656  30.089  0.00  0.00    +0.091 A 
ATOM     18  C   LIG    1        7.478 148.432  28.722  0.00  0.00    +0.124 A 
ATOM     19  C   LIG    1        8.643 147.829  28.247  0.00  0.00    +0.092 A 
ATOM     24  C   LIG    1        9.641 147.448  29.144  0.00  0.00    +0.147 A 
ATOM     25  O   LIG    1       10.763 146.861  28.619  0.00  0.00    -0.451 OA
ATOM     26  O   LIG    1       10.455 147.438  32.641  0.00  0.00    -0.283 OA
ATOM     27  C   LIG    1       11.769 146.462  29.485  0.00  0.00    +0.181 A 
BRANCH  27  28
ATOM     28  C   LIG    1       12.915 145.848  28.793  0.00  0.00    +0.025 A 
ATOM     29  C   LIG    1       13.001 144.460  28.681  0.00  0.00    +0.015 A 
ATOM     30  C   LIG    1       14.086 143.879  28.025  0.00  0.00    +0.050 A 
ATOM     31  C   LIG    1       15.086 144.685  27.481  0.00  0.00    +0.158 A 
ATOM     32  C   LIG    1       15.001 146.072  27.593  0.00  0.00    +0.159 A 
ATOM     37  C   LIG    1       13.915 146.654  28.248  0.00  0.00    +0.060 A 
BRANCH  32  33
ATOM     33  O   LIG    1       15.971 146.870  27.064  0.00  0.00    -0.503 OA
ATOM     34  H   LIG    1       16.845 146.540  27.328  0.00  0.00    +0.292 HD
ENDBRANCH  32  33
BRANCH  31  35
ATOM     35  O   LIG    1       16.141 144.106  26.844  0.00  0.00    -0.503 OA
ATOM     36  H   LIG    1       16.278 143.208  27.187  0.00  0.00    +0.292 HD
ENDBRANCH  31  35
ENDBRANCH  27  28
BRANCH  18  20
ATOM     20  O   LIG    1        6.502 148.805  27.848  0.00  0.00    -0.507 OA
ATOM     21  H   LIG    1        5.701 149.034  28.349  0.00  0.00    +0.292 HD
ENDBRANCH  18  20
BRANCH  16  22
ATOM     22  O   LIG    1        8.096 148.517  32.312  0.00  0.00    -0.506 OA
ATOM     23  H   LIG    1        7.392 147.931  32.639  0.00  0.00    +0.292 HD
ENDBRANCH  16  22
ENDBRANCH  12  13
ENDBRANCH   2  12
BRANCH  38  39
ATOM     39  C   LIG    1       14.174 150.702  32.267  0.00  0.00    +0.197 C 
BRANCH  39  40
ATOM     40  O   LIG    1       14.178 150.414  30.876  0.00  0.00    -0.346 OA
BRANCH  40  41
ATOM     41  C   LIG    1       13.279 151.260  30.167  0.00  0.00    +0.282 C 
ATOM     42  C   LIG    1       13.402 152.693  30.683  0.00  0.00    +0.201 C 
ATOM     43  C   LIG    1       14.736 153.312  30.261  0.00  0.00    +0.179 C 
ATOM     44  C   LIG    1       14.953 153.170  28.754  0.00  0.00    +0.174 C 
ATOM     45  C   LIG    1       14.761 151.708  28.329  0.00  0.00    +0.149 C 
ATOM     46  C   LIG    1       14.824 151.541  26.813  0.00  0.00    +0.041 C 
ATOM     53  O   LIG    1       13.486 151.212  28.752  0.00  0.00    -0.343 OA
BRANCH  44  47
ATOM     47  O   LIG    1       16.279 153.601  28.455  0.00  0.00    -0.387 OA
ATOM     48  H   LIG    1       16.263 154.568  28.359  0.00  0.00    +0.210 HD
ENDBRANCH  44  47
BRANCH  43  49
ATOM     49  O   LIG    1       14.763 154.693  30.612  0.00  0.00    -0.386 OA
ATOM     50  H   LIG    1       14.181 155.167  29.993  0.00  0.00    +0.210 HD
ENDBRANCH  43  49
BRANCH  42  51
ATOM     51  O   LIG    1       12.320 153.447  30.134  0.00  0.00    -0.384 OA
ATOM     52  H   LIG    1       12.582 154.383  30.104  0.00  0.00    +0.210 HD
ENDBRANCH  42  51
ENDBRANCH  40  41
ENDBRANCH  39  40
ENDBRANCH  38  39
TORSDOF 16
ENDMDL
MODEL 2
REMARK VINA RESULT:      -8.8      2.264      5.315
REMARK  Name = 5280805
REMARK                            x       y       z     vdW  Elec       q    Type
REMARK                         _______ _______ _______ _____ _____    ______ ____
ROOT
ATOM      1  O   LIG    1       10.319 146.880  30.058  0.00  0.00    -0.331 OA
ATOM      2  C   LIG    1       10.127 146.142  28.853  0.00  0.00    +0.340 C 
ATOM      3  C   LIG    1        8.711 146.350  28.317  0.00  0.00    +0.214 C 
ATOM      4  C   LIG    1        8.389 147.836  28.158  0.00  0.00    +0.180 C 
ATOM      5  C   LIG    1        8.758 148.620  29.418  0.00  0.00    +0.177 C 
ATOM     38  C   LIG    1       10.184 148.289  29.865  0.00  0.00    +0.179 C 
ENDROOT
BRANCH   5   6
ATOM      6  O   LIG    1        8.660 150.016  29.149  0.00  0.00    -0.386 OA
ATOM      7  H   LIG    1        8.259 150.444  29.925  0.00  0.00    +0.210 HD
ENDBRANCH   5   6
BRANCH   4   8
ATOM      8  O   LIG    1        6.987 147.997  27.933  0.00  0.00    -0.386 OA
ATOM      9  H   LIG    1        6.831 148.935  27.729  0.00  0.00    +0.210 HD
ENDBRANCH   4   8
BRANCH   3  10
ATOM     10  O   LIG    1        8.614 145.706  27.047  0.00  0.00    -0.383 OA
ATOM     11  H   LIG    1        7.677 145.510  26.878  0.00  0.00    +0.210 HD
ENDBRANCH   3  10
BRANCH   2  12
ATOM     12  O   LIG    1       10.301 144.749  29.108  0.00  0.00    -0.453 OA
BRANCH  12  13
ATOM     13  C   LIG    1       10.834 144.525  30.358  0.00  0.00    +0.214 A 
ATOM     14  C   LIG    1        9.907 144.485  31.515  0.00  0.00    +0.238 A 
ATOM     15  C   LIG    1       10.513 144.222  32.829  0.00  0.00    +0.109 A 
ATOM     16  C   LIG    1        9.724 144.166  33.981  0.00  0.00    +0.135 A 
ATOM     17  C   LIG    1       10.326 143.912  35.215  0.00  0.00    +0.091 A 
ATOM     18  C   LIG    1       11.704 143.716  35.296  0.00  0.00    +0.124 A 
ATOM     19  C   LIG    1       12.488 143.771  34.144  0.00  0.00    +0.092 A 
ATOM     24  C   LIG    1       11.890 144.025  32.909  0.00  0.00    +0.147 A 
ATOM     25  O   LIG    1       12.712 144.067  31.812  0.00  0.00    -0.451 OA
ATOM     26  O   LIG    1        8.703 144.660  31.382  0.00  0.00    -0.283 OA
ATOM     27  C   LIG    1       12.148 144.327  30.573  0.00  0.00    +0.181 A 
BRANCH  27  28
ATOM     28  C   LIG    1       13.139 144.343  29.483  0.00  0.00    +0.025 A 
ATOM     29  C   LIG    1       13.290 143.227  28.659  0.00  0.00    +0.015 A 
ATOM     30  C   LIG    1       14.227 143.243  27.627  0.00  0.00    +0.050 A 
ATOM     31  C   LIG    1       15.017 144.374  27.419  0.00  0.00    +0.158 A 
ATOM     32  C   LIG    1       14.867 145.490  28.241  0.00  0.00    +0.159 A 
ATOM     37  C   LIG    1       13.928 145.474  29.273  0.00  0.00    +0.060 A 
BRANCH  32  33
ATOM     33  O   LIG    1       15.631 146.601  28.047  0.00  0.00    -0.503 OA
ATOM     34  H   LIG    1       16.037 146.869  28.887  0.00  0.00    +0.292 HD
ENDBRANCH  32  33
BRANCH  31  35
ATOM     35  O   LIG    1       15.931 144.377  26.409  0.00  0.00    -0.503 OA
ATOM     36  H   LIG    1       16.800 144.631  26.755  0.00  0.00    +0.292 HD
ENDBRANCH  31  35
ENDBRANCH  27  28
BRANCH  18  20
ATOM     20  O   LIG    1       12.286 143.468  36.502  0.00  0.00    -0.507 OA
ATOM     21  H   LIG    1       12.880 144.205  36.723  0.00  0.00    +0.292 HD
ENDBRANCH  18  20
BRANCH  16  22
ATOM     22  O   LIG    1        8.375 144.351  33.958  0.00  0.00    -0.506 OA
ATOM     23  H   LIG    1        8.089 144.542  33.048  0.00  0.00    +0.292 HD
ENDBRANCH  16  22
ENDBRANCH  12  13
ENDBRANCH   2  12
BRANCH  38  39
ATOM     39  C   LIG    1       10.534 148.969  31.185  0.00  0.00    +0.197 C 
BRANCH  39  40
ATOM     40  O   LIG    1       11.405 150.061  30.925  0.00  0.00    -0.346 OA
BRANCH  40  41
ATOM     41  C   LIG    1       12.667 149.617  30.438  0.00  0.00    +0.282 C 
ATOM     42  C   LIG    1       13.183 150.588  29.377  0.00  0.00    +0.201 C 
ATOM     43  C   LIG    1       13.596 151.918  30.010  0.00  0.00    +0.179 C 
ATOM     44  C   LIG    1       14.562 151.693  31.173  0.00  0.00    +0.174 C 
ATOM     45  C   LIG    1       13.977 150.670  32.156  0.00  0.00    +0.149 C 
ATOM     46  C   LIG    1       14.968 150.303  33.258  0.00  0.00    +0.041 C 
ATOM     53  O   LIG    1       13.629 149.454  31.485  0.00  0.00    -0.343 OA
BRANCH  44  47
ATOM     47  O   LIG    1       14.767 152.944  31.827  0.00  0.00    -0.387 OA
ATOM     48  H   LIG    1       15.721 153.130  31.822  0.00  0.00    +0.210 HD
ENDBRANCH  44  47
BRANCH  43  49
ATOM     49  O   LIG    1       14.221 152.747  29.033  0.00  0.00    -0.386 OA
ATOM     50  H   LIG    1       13.584 152.888  28.313  0.00  0.00    +0.210 HD
ENDBRANCH  43  49
BRANCH  42  51
ATOM     51  O   LIG    1       14.309 149.980  28.742  0.00  0.00    -0.384 OA
ATOM     52  H   LIG    1       14.583 149.212  29.272  0.00  0.00    +0.210 HD
ENDBRANCH  42  51
ENDBRANCH  40  41
ENDBRANCH  39  40
ENDBRANCH  38  39
TORSDOF 16
ENDMDL
MODEL 3
REMARK VINA RESULT:      -8.7      1.396      2.016
REMARK  Name = 5280805
REMARK                            x       y       z     vdW  Elec       q    Type
REMARK                         _______ _______ _______ _____ _____    ______ ____
ROOT
ATOM      1  O   LIG    1       13.524 146.697  32.840  0.00  0.00    -0.331 OA
ATOM      2  C   LIG    1       12.428 145.785  32.852  0.00  0.00    +0.340 C 
ATOM      3  C   LIG    1       12.644 144.699  33.906  0.00  0.00    +0.214 C 
ATOM      4  C   LIG    1       12.923 145.307  35.281  0.00  0.00    +0.180 C 
ATOM      5  C   LIG    1       13.995 146.394  35.198  0.00  0.00    +0.177 C 
ATOM     38  C   LIG    1       13.674 147.389  34.081  0.00  0.00    +0.179 C 
ENDROOT
BRANCH   5   6
ATOM      6  O   LIG    1       14.059 147.087  36.442  0.00  0.00    -0.386 OA
ATOM      7  H   LIG    1       13.149 147.256  36.740  0.00  0.00    +0.210 HD
ENDBRANCH   5   6
BRANCH   4   8
ATOM      8  O   LIG    1       13.395 144.288  36.164  0.00  0.00    -0.386 OA
ATOM      9  H   LIG    1       12.631 143.740  36.411  0.00  0.00    +0.210 HD
ENDBRANCH   4   8
BRANCH   3  10
ATOM     10  O   LIG    1       11.464 143.899  33.972  0.00  0.00    -0.383 OA
ATOM     11  H   LIG    1       11.539 143.315  34.746  0.00  0.00    +0.210 HD
ENDBRANCH   3  10
BRANCH   2  12
ATOM     12  O   LIG    1       12.317 145.148  31.580  0.00  0.00    -0.453 OA
BRANCH  12  13
ATOM     13  C   LIG    1       11.421 145.800  30.762  0.00  0.00    +0.214 A 
ATOM     14  C   LIG    1       10.188 146.349  31.376  0.00  0.00    +0.238 A 
ATOM     15  C   LIG    1        9.269 147.057  30.472  0.00  0.00    +0.109 A 
ATOM     16  C   LIG    1        8.078 147.608  30.953  0.00  0.00    +0.135 A 
ATOM     17  C   LIG    1        7.224 148.277  30.074  0.00  0.00    +0.091 A 
ATOM     18  C   LIG    1        7.559 148.393  28.725  0.00  0.00    +0.124 A 
ATOM     19  C   LIG    1        8.749 147.842  28.248  0.00  0.00    +0.092 A 
ATOM     24  C   LIG    1        9.603 147.173  29.125  0.00  0.00    +0.147 A 
ATOM     25  O   LIG    1       10.758 146.653  28.598  0.00  0.00    -0.451 OA
ATOM     26  O   LIG    1        9.950 146.221  32.569  0.00  0.00    -0.283 OA
ATOM     27  C   LIG    1       11.623 145.974  29.442  0.00  0.00    +0.181 A 
BRANCH  27  28
ATOM     28  C   LIG    1       12.821 145.469  28.751  0.00  0.00    +0.025 A 
ATOM     29  C   LIG    1       13.006 144.096  28.586  0.00  0.00    +0.015 A 
ATOM     30  C   LIG    1       14.140 143.618  27.931  0.00  0.00    +0.050 A 
ATOM     31  C   LIG    1       15.093 144.512  27.443  0.00  0.00    +0.158 A 
ATOM     32  C   LIG    1       14.910 145.885  27.608  0.00  0.00    +0.159 A 
ATOM     37  C   LIG    1       13.774 146.363  28.262  0.00  0.00    +0.060 A 
BRANCH  32  33
ATOM     33  O   LIG    1       15.832 146.768  27.134  0.00  0.00    -0.503 OA
ATOM     34  H   LIG    1       15.689 147.639  27.540  0.00  0.00    +0.292 HD
ENDBRANCH  32  33
BRANCH  31  35
ATOM     35  O   LIG    1       16.198 144.033  26.807  0.00  0.00    -0.503 OA
ATOM     36  H   LIG    1       16.043 144.015  25.850  0.00  0.00    +0.292 HD
ENDBRANCH  31  35
ENDBRANCH  27  28
BRANCH  18  20
ATOM     20  O   LIG    1        6.724 149.047  27.871  0.00  0.00    -0.507 OA
ATOM     21  H   LIG    1        7.041 149.959  27.755  0.00  0.00    +0.292 HD
ENDBRANCH  18  20
BRANCH  16  22
ATOM     22  O   LIG    1        7.704 147.524  32.260  0.00  0.00    -0.506 OA
ATOM     23  H   LIG    1        7.520 148.415  32.603  0.00  0.00    +0.292 HD
ENDBRANCH  16  22
ENDBRANCH  12  13
ENDBRANCH   2  12
BRANCH  38  39
ATOM     39  C   LIG    1       14.788 148.416  33.902  0.00  0.00    +0.197 C 
BRANCH  39  40
ATOM     40  O   LIG    1       14.580 149.115  32.682  0.00  0.00    -0.346 OA
BRANCH  40  41
ATOM     41  C   LIG    1       13.547 150.086  32.808  0.00  0.00    +0.282 C 
ATOM     42  C   LIG    1       14.152 151.489  32.797  0.00  0.00    +0.201 C 
ATOM     43  C   LIG    1       14.682 151.843  31.406  0.00  0.00    +0.179 C 
ATOM     44  C   LIG    1       13.611 151.617  30.339  0.00  0.00    +0.174 C 
ATOM     45  C   LIG    1       13.032 150.201  30.463  0.00  0.00    +0.149 C 
ATOM     46  C   LIG    1       11.858 149.978  29.514  0.00  0.00    +0.041 C 
ATOM     53  O   LIG    1       12.550 149.957  31.789  0.00  0.00    -0.343 OA
BRANCH  44  47
ATOM     47  O   LIG    1       14.216 151.792  29.059  0.00  0.00    -0.387 OA
ATOM     48  H   LIG    1       13.557 151.557  28.384  0.00  0.00    +0.210 HD
ENDBRANCH  44  47
BRANCH  43  49
ATOM     49  O   LIG    1       15.094 153.208  31.377  0.00  0.00    -0.386 OA
ATOM     50  H   LIG    1       15.970 153.244  30.956  0.00  0.00    +0.210 HD
ENDBRANCH  43  49
BRANCH  42  51
ATOM     51  O   LIG    1       13.127 152.408  33.176  0.00  0.00    -0.384 OA
ATOM     52  H   LIG    1       13.189 153.191  32.603  0.00  0.00    +0.210 HD
ENDBRANCH  42  51
ENDBRANCH  40  41
ENDBRANCH  39  40
ENDBRANCH  38  39
TORSDOF 16
ENDMDL
MODEL 4
REMARK VINA RESULT:      -8.7     14.550     19.994
REMARK  Name = 5280805
REMARK                            x       y       z     vdW  Elec       q    Type
REMARK                         _______ _______ _______ _____ _____    ______ ____
ROOT
ATOM      1  O   LIG    1       16.337 163.710  19.831  0.00  0.00    -0.331 OA
ATOM      2  C   LIG    1       16.060 163.312  21.172  0.00  0.00    +0.340 C 
ATOM      3  C   LIG    1       14.604 163.609  21.530  0.00  0.00    +0.214 C 
ATOM      4  C   LIG    1       13.644 162.984  20.518  0.00  0.00    +0.180 C 
ATOM      5  C   LIG    1       14.067 163.303  19.084  0.00  0.00    +0.177 C 
ATOM     38  C   LIG    1       15.552 162.995  18.875  0.00  0.00    +0.179 C 
ENDROOT
BRANCH   5   6
ATOM      6  O   LIG    1       13.293 162.520  18.179  0.00  0.00    -0.386 OA
ATOM      7  H   LIG    1       12.832 163.126  17.575  0.00  0.00    +0.210 HD
ENDBRANCH   5   6
BRANCH   4   8
ATOM      8  O   LIG    1       12.331 163.513  20.718  0.00  0.00    -0.386 OA
ATOM      9  H   LIG    1       11.726 163.013  20.144  0.00  0.00    +0.210 HD
ENDBRANCH   4   8
BRANCH   3  10
ATOM     10  O   LIG    1       14.342 163.071  22.826  0.00  0.00    -0.383 OA
ATOM     11  H   LIG    1       13.466 162.650  22.807  0.00  0.00    +0.210 HD
ENDBRANCH   3  10
BRANCH   2  12
ATOM     12  O   LIG    1       16.892 164.043  22.073  0.00  0.00    -0.453 OA
BRANCH  12  13
ATOM     13  C   LIG    1       17.948 163.279  22.520  0.00  0.00    +0.214 A 
ATOM     14  C   LIG    1       17.676 162.249  23.552  0.00  0.00    +0.238 A 
ATOM     15  C   LIG    1       18.826 161.442  23.986  0.00  0.00    +0.109 A 
ATOM     16  C   LIG    1       18.674 160.447  24.956  0.00  0.00    +0.135 A 
ATOM     17  C   LIG    1       19.782 159.693  25.348  0.00  0.00    +0.091 A 
ATOM     18  C   LIG    1       21.031 159.933  24.775  0.00  0.00    +0.124 A 
ATOM     19  C   LIG    1       21.179 160.926  23.807  0.00  0.00    +0.092 A 
ATOM     24  C   LIG    1       20.073 161.681  23.413  0.00  0.00    +0.147 A 
ATOM     25  O   LIG    1       20.280 162.642  22.458  0.00  0.00    -0.451 OA
ATOM     26  O   LIG    1       16.556 162.081  24.015  0.00  0.00    -0.283 OA
ATOM     27  C   LIG    1       19.203 163.415  22.053  0.00  0.00    +0.181 A 
BRANCH  27  28
ATOM     28  C   LIG    1       19.561 164.407  21.024  0.00  0.00    +0.025 A 
ATOM     29  C   LIG    1       19.944 165.695  21.399  0.00  0.00    +0.015 A 
ATOM     30  C   LIG    1       20.284 166.633  20.425  0.00  0.00    +0.050 A 
ATOM     31  C   LIG    1       20.240 166.284  19.075  0.00  0.00    +0.158 A 
ATOM     32  C   LIG    1       19.857 164.997  18.699  0.00  0.00    +0.159 A 
ATOM     37  C   LIG    1       19.518 164.059  19.674  0.00  0.00    +0.060 A 
BRANCH  32  33
ATOM     33  O   LIG    1       19.812 164.644  17.384  0.00  0.00    -0.503 OA
ATOM     34  H   LIG    1       20.458 165.167  16.883  0.00  0.00    +0.292 HD
ENDBRANCH  32  33
BRANCH  31  35
ATOM     35  O   LIG    1       20.572 167.210  18.132  0.00  0.00    -0.503 OA
ATOM     36  H   LIG    1       21.358 167.701  18.419  0.00  0.00    +0.292 HD
ENDBRANCH  31  35
ENDBRANCH  27  28
BRANCH  18  20
ATOM     20  O   LIG    1       22.108 159.195  25.161  0.00  0.00    -0.507 OA
ATOM     21  H   LIG    1       21.959 158.266  24.914  0.00  0.00    +0.292 HD
ENDBRANCH  18  20
BRANCH  16  22
ATOM     22  O   LIG    1       17.478 160.172  25.546  0.00  0.00    -0.506 OA
ATOM     23  H   LIG    1       17.454 159.236  25.810  0.00  0.00    +0.292 HD
ENDBRANCH  16  22
ENDBRANCH  12  13
ENDBRANCH   2  12
BRANCH  38  39
ATOM     39  C   LIG    1       16.026 163.413  17.487  0.00  0.00    +0.197 C 
BRANCH  39  40
ATOM     40  O   LIG    1       15.237 164.506  17.039  0.00  0.00    -0.346 OA
BRANCH  40  41
ATOM     41  C   LIG    1       15.291 164.641  15.622  0.00  0.00    +0.282 C 
ATOM     42  C   LIG    1       14.584 163.457  14.963  0.00  0.00    +0.201 C 
ATOM     43  C   LIG    1       13.072 163.536  15.180  0.00  0.00    +0.179 C 
ATOM     44  C   LIG    1       12.528 164.901  14.758  0.00  0.00    +0.174 C 
ATOM     45  C   LIG    1       13.332 166.020  15.433  0.00  0.00    +0.149 C 
ATOM     46  C   LIG    1       12.922 167.403  14.929  0.00  0.00    +0.041 C 
ATOM     53  O   LIG    1       14.732 165.878  15.170  0.00  0.00    -0.343 OA
BRANCH  44  47
ATOM     47  O   LIG    1       11.158 164.973  15.147  0.00  0.00    -0.387 OA
ATOM     48  H   LIG    1       10.619 164.678  14.394  0.00  0.00    +0.210 HD
ENDBRANCH  44  47
BRANCH  43  49
ATOM     49  O   LIG    1       12.419 162.517  14.426  0.00  0.00    -0.386 OA
ATOM     50  H   LIG    1       11.474 162.542  14.649  0.00  0.00    +0.210 HD
ENDBRANCH  43  49
BRANCH  42  51
ATOM     51  O   LIG    1       14.878 163.498  13.566  0.00  0.00    -0.384 OA
ATOM     52  H   LIG    1       14.040 163.555  13.077  0.00  0.00    +0.210 HD
ENDBRANCH  42  51
ENDBRANCH  40  41
ENDBRANCH  39  40
ENDBRANCH  38  39
TORSDOF 16
ENDMDL
MODEL 5
REMARK VINA RESULT:      -8.7      2.142      3.063
REMARK  Name = 5280805
REMARK                            x       y       z     vdW  Elec       q    Type
REMARK                         _______ _______ _______ _____ _____    ______ ____
ROOT
ATOM      1  O   LIG    1       13.534 147.459  32.208  0.00  0.00    -0.331 OA
ATOM      2  C   LIG    1       13.051 146.252  32.794  0.00  0.00    +0.340 C 
ATOM      3  C   LIG    1       13.954 145.816  33.948  0.00  0.00    +0.214 C 
ATOM      4  C   LIG    1       14.132 146.939  34.970  0.00  0.00    +0.180 C 
ATOM      5  C   LIG    1       14.495 148.257  34.286  0.00  0.00    +0.177 C 
ATOM     38  C   LIG    1       13.536 148.551  33.129  0.00  0.00    +0.179 C 
ENDROOT
BRANCH   5   6
ATOM      6  O   LIG    1       14.425 149.316  35.237  0.00  0.00    -0.386 OA
ATOM      7  H   LIG    1       14.778 150.119  34.819  0.00  0.00    +0.210 HD
ENDBRANCH   5   6
BRANCH   4   8
ATOM      8  O   LIG    1       15.191 146.601  35.868  0.00  0.00    -0.386 OA
ATOM      9  H   LIG    1       15.783 147.370  35.921  0.00  0.00    +0.210 HD
ENDBRANCH   4   8
BRANCH   3  10
ATOM     10  O   LIG    1       13.355 144.687  34.584  0.00  0.00    -0.383 OA
ATOM     11  H   LIG    1       13.029 144.089  33.891  0.00  0.00    +0.210 HD
ENDBRANCH   3  10
BRANCH   2  12
ATOM     12  O   LIG    1       13.049 145.210  31.819  0.00  0.00    -0.453 OA
BRANCH  12  13
ATOM     13  C   LIG    1       11.852 145.152  31.140  0.00  0.00    +0.214 A 
ATOM     14  C   LIG    1       10.600 145.299  31.922  0.00  0.00    +0.238 A 
ATOM     15  C   LIG    1        9.344 145.253  31.157  0.00  0.00    +0.109 A 
ATOM     16  C   LIG    1        8.110 145.379  31.802  0.00  0.00    +0.135 A 
ATOM     17  C   LIG    1        6.934 145.334  31.051  0.00  0.00    +0.091 A 
ATOM     18  C   LIG    1        6.991 145.165  29.667  0.00  0.00    +0.124 A 
ATOM     19  C   LIG    1        8.225 145.040  29.027  0.00  0.00    +0.092 A 
ATOM     24  C   LIG    1        9.402 145.084  29.775  0.00  0.00    +0.147 A 
ATOM     25  O   LIG    1       10.583 144.956  29.091  0.00  0.00    -0.451 OA
ATOM     26  O   LIG    1       10.611 145.451  33.136  0.00  0.00    -0.283 OA
ATOM     27  C   LIG    1       11.769 144.986  29.807  0.00  0.00    +0.181 A 
BRANCH  27  28
ATOM     28  C   LIG    1       12.961 144.839  28.953  0.00  0.00    +0.025 A 
ATOM     29  C   LIG    1       13.308 143.586  28.449  0.00  0.00    +0.015 A 
ATOM     30  C   LIG    1       14.436 143.447  27.640  0.00  0.00    +0.050 A 
ATOM     31  C   LIG    1       15.217 144.562  27.336  0.00  0.00    +0.158 A 
ATOM     32  C   LIG    1       14.871 145.815  27.839  0.00  0.00    +0.159 A 
ATOM     37  C   LIG    1       13.742 145.953  28.648  0.00  0.00    +0.060 A 
BRANCH  32  33
ATOM     33  O   LIG    1       15.626 146.911  27.548  0.00  0.00    -0.503 OA
ATOM     34  H   LIG    1       15.046 147.651  27.305  0.00  0.00    +0.292 HD
ENDBRANCH  32  33
BRANCH  31  35
ATOM     35  O   LIG    1       16.317 144.413  26.546  0.00  0.00    -0.503 OA
ATOM     36  H   LIG    1       16.101 143.853  25.785  0.00  0.00    +0.292 HD
ENDBRANCH  31  35
ENDBRANCH  27  28
BRANCH  18  20
ATOM     20  O   LIG    1        5.842 145.122  28.940  0.00  0.00    -0.507 OA
ATOM     21  H   LIG    1        5.973 144.534  28.177  0.00  0.00    +0.292 HD
ENDBRANCH  18  20
BRANCH  16  22
ATOM     22  O   LIG    1        7.999 145.547  33.149  0.00  0.00    -0.506 OA
ATOM     23  H   LIG    1        8.482 146.347  33.417  0.00  0.00    +0.292 HD
ENDBRANCH  16  22
ENDBRANCH  12  13
ENDBRANCH   2  12
BRANCH  38  39
ATOM     39  C   LIG    1       13.948 149.801  32.358  0.00  0.00    +0.197 C 
BRANCH  39  40
ATOM     40  O   LIG    1       12.786 150.558  32.051  0.00  0.00    -0.346 OA
BRANCH  40  41
ATOM     41  C   LIG    1       12.776 150.970  30.688  0.00  0.00    +0.282 C 
ATOM     42  C   LIG    1       12.633 149.748  29.782  0.00  0.00    +0.201 C 
ATOM     43  C   LIG    1       11.228 149.152  29.889  0.00  0.00    +0.179 C 
ATOM     44  C   LIG    1       10.160 150.223  29.666  0.00  0.00    +0.174 C 
ATOM     45  C   LIG    1       10.419 151.424  30.585  0.00  0.00    +0.149 C 
ATOM     46  C   LIG    1        9.465 152.581  30.297  0.00  0.00    +0.041 C 
ATOM     53  O   LIG    1       11.749 151.927  30.414  0.00  0.00    -0.343 OA
BRANCH  44  47
ATOM     47  O   LIG    1        8.888 149.647  29.953  0.00  0.00    -0.387 OA
ATOM     48  H   LIG    1        8.967 148.684  29.847  0.00  0.00    +0.210 HD
ENDBRANCH  44  47
BRANCH  43  49
ATOM     49  O   LIG    1       11.065 148.118  28.921  0.00  0.00    -0.386 OA
ATOM     50  H   LIG    1       10.142 148.140  28.616  0.00  0.00    +0.210 HD
ENDBRANCH  43  49
BRANCH  42  51
ATOM     51  O   LIG    1       12.882 150.171  28.440  0.00  0.00    -0.384 OA
ATOM     52  H   LIG    1       12.489 151.052  28.318  0.00  0.00    +0.210 HD
ENDBRANCH  42  51
ENDBRANCH  40  41
ENDBRANCH  39  40
ENDBRANCH  38  39
TORSDOF 16
ENDMDL
MODEL 6
REMARK VINA RESULT:      -8.6      1.197      2.185
REMARK  Name = 5280805
REMARK                            x       y       z     vdW  Elec       q    Type
REMARK                         _______ _______ _______ _____ _____    ______ ____
ROOT
ATOM      1  O   LIG    1       13.786 148.027  32.482  0.00  0.00    -0.331 OA
ATOM      2  C   LIG    1       13.078 146.870  32.924  0.00  0.00    +0.340 C 
ATOM      3  C   LIG    1       13.912 146.085  33.936  0.00  0.00    +0.214 C 
ATOM      4  C   LIG    1       14.368 146.977  35.092  0.00  0.00    +0.180 C 
ATOM      5  C   LIG    1       14.978 148.281  34.577  0.00  0.00    +0.177 C 
ATOM     38  C   LIG    1       14.059 148.941  33.546  0.00  0.00    +0.179 C 
ENDROOT
BRANCH   5   6
ATOM      6  O   LIG    1       15.174 149.172  35.672  0.00  0.00    -0.386 OA
ATOM      7  H   LIG    1       15.335 150.061  35.311  0.00  0.00    +0.210 HD
ENDBRANCH   5   6
BRANCH   4   8
ATOM      8  O   LIG    1       15.364 146.294  35.855  0.00  0.00    -0.386 OA
ATOM      9  H   LIG    1       16.085 146.925  36.023  0.00  0.00    +0.210 HD
ENDBRANCH   4   8
BRANCH   3  10
ATOM     10  O   LIG    1       13.111 145.020  34.447  0.00  0.00    -0.383 OA
ATOM     11  H   LIG    1       12.730 145.308  35.294  0.00  0.00    +0.210 HD
ENDBRANCH   3  10
BRANCH   2  12
ATOM     12  O   LIG    1       12.814 146.014  31.813  0.00  0.00    -0.453 OA
BRANCH  12  13
ATOM     13  C   LIG    1       11.808 146.513  31.016  0.00  0.00    +0.214 A 
ATOM     14  C   LIG    1       10.651 147.161  31.678  0.00  0.00    +0.238 A 
ATOM     15  C   LIG    1        9.609 147.700  30.790  0.00  0.00    +0.109 A 
ATOM     16  C   LIG    1        8.476 148.328  31.317  0.00  0.00    +0.135 A 
ATOM     17  C   LIG    1        7.504 148.833  30.451  0.00  0.00    +0.091 A 
ATOM     18  C   LIG    1        7.663 148.710  29.071  0.00  0.00    +0.124 A 
ATOM     19  C   LIG    1        8.795 148.084  28.549  0.00  0.00    +0.092 A 
ATOM     24  C   LIG    1        9.768 147.578  29.412  0.00  0.00    +0.147 A 
ATOM     25  O   LIG    1       10.858 146.974  28.840  0.00  0.00    -0.451 OA
ATOM     26  O   LIG    1       10.568 147.245  32.896  0.00  0.00    -0.283 OA
ATOM     27  C   LIG    1       11.837 146.453  29.671  0.00  0.00    +0.181 A 
BRANCH  27  28
ATOM     28  C   LIG    1       12.950 145.833  28.931  0.00  0.00    +0.025 A 
ATOM     29  C   LIG    1       13.023 144.445  28.812  0.00  0.00    +0.015 A 
ATOM     30  C   LIG    1       14.076 143.860  28.111  0.00  0.00    +0.050 A 
ATOM     31  C   LIG    1       15.058 144.661  27.529  0.00  0.00    +0.158 A 
ATOM     32  C   LIG    1       14.986 146.048  27.647  0.00  0.00    +0.159 A 
ATOM     37  C   LIG    1       13.932 146.635  28.348  0.00  0.00    +0.060 A 
BRANCH  32  33
ATOM     33  O   LIG    1       15.938 146.842  27.081  0.00  0.00    -0.503 OA
ATOM     34  H   LIG    1       16.666 146.292  26.747  0.00  0.00    +0.292 HD
ENDBRANCH  32  33
BRANCH  31  35
ATOM     35  O   LIG    1       16.083 144.077  26.848  0.00  0.00    -0.503 OA
ATOM     36  H   LIG    1       16.389 143.291  27.327  0.00  0.00    +0.292 HD
ENDBRANCH  31  35
ENDBRANCH  27  28
BRANCH  18  20
ATOM     20  O   LIG    1        6.712 149.204  28.231  0.00  0.00    -0.507 OA
ATOM     21  H   LIG    1        6.613 150.158  28.392  0.00  0.00    +0.292 HD
ENDBRANCH  18  20
BRANCH  16  22
ATOM     22  O   LIG    1        8.273 148.474  32.656  0.00  0.00    -0.506 OA
ATOM     23  H   LIG    1        7.529 149.083  32.806  0.00  0.00    +0.292 HD
ENDBRANCH  16  22
ENDBRANCH  12  13
ENDBRANCH   2  12
BRANCH  38  39
ATOM     39  C   LIG    1       14.699 150.182  32.932  0.00  0.00    +0.197 C 
BRANCH  39  40
ATOM     40  O   LIG    1       14.092 151.339  33.492  0.00  0.00    -0.346 OA
BRANCH  40  41
ATOM     41  C   LIG    1       14.519 152.524  32.828  0.00  0.00    +0.282 C 
ATOM     42  C   LIG    1       14.672 152.251  31.332  0.00  0.00    +0.201 C 
ATOM     43  C   LIG    1       13.306 152.054  30.672  0.00  0.00    +0.179 C 
ATOM     44  C   LIG    1       12.366 153.214  31.002  0.00  0.00    +0.174 C 
ATOM     45  C   LIG    1       12.318 153.439  32.519  0.00  0.00    +0.149 C 
ATOM     46  C   LIG    1       11.508 154.678  32.889  0.00  0.00    +0.041 C 
ATOM     53  O   LIG    1       13.634 153.625  33.053  0.00  0.00    -0.343 OA
BRANCH  44  47
ATOM     47  O   LIG    1       11.068 152.886  30.511  0.00  0.00    -0.387 OA
ATOM     48  H   LIG    1       10.780 152.069  30.951  0.00  0.00    +0.210 HD
ENDBRANCH  44  47
BRANCH  43  49
ATOM     49  O   LIG    1       13.459 151.962  29.257  0.00  0.00    -0.386 OA
ATOM     50  H   LIG    1       12.997 151.160  28.961  0.00  0.00    +0.210 HD
ENDBRANCH  43  49
BRANCH  42  51
ATOM     51  O   LIG    1       15.336 153.374  30.751  0.00  0.00    -0.384 OA
ATOM     52  H   LIG    1       15.481 153.190  29.807  0.00  0.00    +0.210 HD
ENDBRANCH  42  51
ENDBRANCH  40  41
ENDBRANCH  39  40
ENDBRANCH  38  39
TORSDOF 16
ENDMDL
MODEL 7
REMARK VINA RESULT:      -8.3      2.691      8.373
REMARK  Name = 5280805
REMARK                            x       y       z     vdW  Elec       q    Type
REMARK                         _______ _______ _______ _____ _____    ______ ____
ROOT
ATOM      1  O   LIG    1       12.294 149.834  31.635  0.00  0.00    -0.331 OA
ATOM      2  C   LIG    1       13.060 150.308  30.530  0.00  0.00    +0.340 C 
ATOM      3  C   LIG    1       13.362 149.168  29.557  0.00  0.00    +0.214 C 
ATOM      4  C   LIG    1       12.082 148.452  29.126  0.00  0.00    +0.180 C 
ATOM      5  C   LIG    1       11.211 148.101  30.332  0.00  0.00    +0.177 C 
ATOM     38  C   LIG    1       11.022 149.320  31.239  0.00  0.00    +0.179 C 
ENDROOT
BRANCH   5   6
ATOM      6  O   LIG    1        9.937 147.650  29.878  0.00  0.00    -0.386 OA
ATOM      7  H   LIG    1        9.304 147.751  30.608  0.00  0.00    +0.210 HD
ENDBRANCH   5   6
BRANCH   4   8
ATOM      8  O   LIG    1       12.420 147.236  28.457  0.00  0.00    -0.386 OA
ATOM      9  H   LIG    1       12.708 146.601  29.135  0.00  0.00    +0.210 HD
ENDBRANCH   4   8
BRANCH   3  10
ATOM     10  O   LIG    1       14.007 149.718  28.409  0.00  0.00    -0.383 OA
ATOM     11  H   LIG    1       13.987 150.686  28.486  0.00  0.00    +0.210 HD
ENDBRANCH   3  10
BRANCH   2  12
ATOM     12  O   LIG    1       14.304 150.831  30.994  0.00  0.00    -0.453 OA
BRANCH  12  13
ATOM     13  C   LIG    1       14.262 152.201  31.125  0.00  0.00    +0.214 A 
ATOM     14  C   LIG    1       14.277 153.021  29.890  0.00  0.00    +0.238 A 
ATOM     15  C   LIG    1       14.208 154.479  30.072  0.00  0.00    +0.109 A 
ATOM     16  C   LIG    1       14.219 155.338  28.970  0.00  0.00    +0.135 A 
ATOM     17  C   LIG    1       14.150 156.717  29.172  0.00  0.00    +0.091 A 
ATOM     18  C   LIG    1       14.072 157.234  30.466  0.00  0.00    +0.124 A 
ATOM     19  C   LIG    1       14.060 156.373  31.564  0.00  0.00    +0.092 A 
ATOM     24  C   LIG    1       14.129 154.993  31.364  0.00  0.00    +0.147 A 
ATOM     25  O   LIG    1       14.114 154.198  32.481  0.00  0.00    -0.451 OA
ATOM     26  O   LIG    1       14.342 152.512  28.779  0.00  0.00    -0.283 OA
ATOM     27  C   LIG    1       14.191 152.824  32.317  0.00  0.00    +0.181 A 
BRANCH  27  28
ATOM     28  C   LIG    1       14.164 152.090  33.593  0.00  0.00    +0.025 A 
ATOM     29  C   LIG    1       12.948 151.836  34.228  0.00  0.00    +0.015 A 
ATOM     30  C   LIG    1       12.922 151.141  35.436  0.00  0.00    +0.050 A 
ATOM     31  C   LIG    1       14.113 150.699  36.012  0.00  0.00    +0.158 A 
ATOM     32  C   LIG    1       15.329 150.952  35.378  0.00  0.00    +0.159 A 
ATOM     37  C   LIG    1       15.355 151.647  34.169  0.00  0.00    +0.060 A 
BRANCH  32  33
ATOM     33  O   LIG    1       16.500 150.523  35.930  0.00  0.00    -0.503 OA
ATOM     34  H   LIG    1       16.486 150.681  36.888  0.00  0.00    +0.292 HD
ENDBRANCH  32  33
BRANCH  31  35
ATOM     35  O   LIG    1       14.076 150.022  37.193  0.00  0.00    -0.503 OA
ATOM     36  H   LIG    1       14.336 149.099  37.050  0.00  0.00    +0.292 HD
ENDBRANCH  31  35
ENDBRANCH  27  28
BRANCH  18  20
ATOM     20  O   LIG    1       14.004 158.579  30.658  0.00  0.00    -0.507 OA
ATOM     21  H   LIG    1       13.998 158.762  31.613  0.00  0.00    +0.292 HD
ENDBRANCH  18  20
BRANCH  16  22
ATOM     22  O   LIG    1       14.294 154.887  27.687  0.00  0.00    -0.506 OA
ATOM     23  H   LIG    1       14.778 155.533  27.144  0.00  0.00    +0.292 HD
ENDBRANCH  16  22
ENDBRANCH  12  13
ENDBRANCH   2  12
BRANCH  38  39
ATOM     39  C   LIG    1       10.253 148.966  32.508  0.00  0.00    +0.197 C 
BRANCH  39  40
ATOM     40  O   LIG    1       10.468 147.595  32.811  0.00  0.00    -0.346 OA
BRANCH  40  41
ATOM     41  C   LIG    1       10.929 147.422  34.147  0.00  0.00    +0.282 C 
ATOM     42  C   LIG    1       10.751 145.965  34.570  0.00  0.00    +0.201 C 
ATOM     43  C   LIG    1       11.735 145.058  33.830  0.00  0.00    +0.179 C 
ATOM     44  C   LIG    1       13.167 145.577  33.966  0.00  0.00    +0.174 C 
ATOM     45  C   LIG    1       13.232 147.056  33.565  0.00  0.00    +0.149 C 
ATOM     46  C   LIG    1       14.611 147.659  33.823  0.00  0.00    +0.041 C 
ATOM     53  O   LIG    1       12.290 147.834  34.311  0.00  0.00    -0.343 OA
BRANCH  44  47
ATOM     47  O   LIG    1       14.004 144.797  33.115  0.00  0.00    -0.387 OA
ATOM     48  H   LIG    1       13.959 145.178  32.222  0.00  0.00    +0.210 HD
ENDBRANCH  44  47
BRANCH  43  49
ATOM     49  O   LIG    1       11.664 143.734  34.354  0.00  0.00    -0.386 OA
ATOM     50  H   LIG    1       11.561 143.802  35.319  0.00  0.00    +0.210 HD
ENDBRANCH  43  49
BRANCH  42  51
ATOM     51  O   LIG    1       10.983 145.890  35.978  0.00  0.00    -0.384 OA
ATOM     52  H   LIG    1       11.934 146.014  36.139  0.00  0.00    +0.210 HD
ENDBRANCH  42  51
ENDBRANCH  40  41
ENDBRANCH  39  40
ENDBRANCH  38  39
TORSDOF 16
ENDMDL
MODEL 8
REMARK VINA RESULT:      -8.3      2.864      8.130
REMARK  Name = 5280805
REMARK                            x       y       z     vdW  Elec       q    Type
REMARK                         _______ _______ _______ _____ _____    ______ ____
ROOT
ATOM      1  O   LIG    1       11.615 149.975  31.305  0.00  0.00    -0.331 OA
ATOM      2  C   LIG    1       12.733 150.054  30.423  0.00  0.00    +0.340 C 
ATOM      3  C   LIG    1       12.961 148.713  29.724  0.00  0.00    +0.214 C 
ATOM      4  C   LIG    1       11.691 148.227  29.026  0.00  0.00    +0.180 C 
ATOM      5  C   LIG    1       10.482 148.308  29.959  0.00  0.00    +0.177 C 
ATOM     38  C   LIG    1       10.396 149.687  30.618  0.00  0.00    +0.179 C 
ENDROOT
BRANCH   5   6
ATOM      6  O   LIG    1        9.293 148.070  29.210  0.00  0.00    -0.386 OA
ATOM      7  H   LIG    1        9.328 147.159  28.872  0.00  0.00    +0.210 HD
ENDBRANCH   5   6
BRANCH   4   8
ATOM      8  O   LIG    1       11.856 146.863  28.635  0.00  0.00    -0.386 OA
ATOM      9  H   LIG    1       12.803 146.720  28.469  0.00  0.00    +0.210 HD
ENDBRANCH   4   8
BRANCH   3  10
ATOM     10  O   LIG    1       13.997 148.883  28.757  0.00  0.00    -0.383 OA
ATOM     11  H   LIG    1       14.771 148.373  29.052  0.00  0.00    +0.210 HD
ENDBRANCH   3  10
BRANCH   2  12
ATOM     12  O   LIG    1       13.911 150.369  31.165  0.00  0.00    -0.453 OA
BRANCH  12  13
ATOM     13  C   LIG    1       14.128 151.728  31.218  0.00  0.00    +0.214 A 
ATOM     14  C   LIG    1       14.299 152.457  29.938  0.00  0.00    +0.238 A 
ATOM     15  C   LIG    1       14.508 153.910  30.037  0.00  0.00    +0.109 A 
ATOM     16  C   LIG    1       14.682 154.687  28.888  0.00  0.00    +0.135 A 
ATOM     17  C   LIG    1       14.876 156.064  29.012  0.00  0.00    +0.091 A 
ATOM     18  C   LIG    1       14.895 156.659  30.273  0.00  0.00    +0.124 A 
ATOM     19  C   LIG    1       14.720 155.881  31.418  0.00  0.00    +0.092 A 
ATOM     24  C   LIG    1       14.527 154.504  31.297  0.00  0.00    +0.147 A 
ATOM     25  O   LIG    1       14.360 153.792  32.457  0.00  0.00    -0.451 OA
ATOM     26  O   LIG    1       14.268 151.882  28.858  0.00  0.00    -0.283 OA
ATOM     27  C   LIG    1       14.176 152.421  32.371  0.00  0.00    +0.181 A 
BRANCH  27  28
ATOM     28  C   LIG    1       14.009 151.779  33.687  0.00  0.00    +0.025 A 
ATOM     29  C   LIG    1       12.751 151.736  34.288  0.00  0.00    +0.015 A 
ATOM     30  C   LIG    1       12.594 151.128  35.533  0.00  0.00    +0.050 A 
ATOM     31  C   LIG    1       13.695 150.565  36.179  0.00  0.00    +0.158 A 
ATOM     32  C   LIG    1       14.952 150.608  35.579  0.00  0.00    +0.159 A 
ATOM     37  C   LIG    1       15.110 151.215  34.332  0.00  0.00    +0.060 A 
BRANCH  32  33
ATOM     33  O   LIG    1       16.035 150.059  36.198  0.00  0.00    -0.503 OA
ATOM     34  H   LIG    1       15.747 149.574  36.989  0.00  0.00    +0.292 HD
ENDBRANCH  32  33
BRANCH  31  35
ATOM     35  O   LIG    1       13.529 149.975  37.396  0.00  0.00    -0.503 OA
ATOM     36  H   LIG    1       14.286 149.400  37.587  0.00  0.00    +0.292 HD
ENDBRANCH  31  35
ENDBRANCH  27  28
BRANCH  18  20
ATOM     20  O   LIG    1       15.084 158.002  30.388  0.00  0.00    -0.507 OA
ATOM     21  H   LIG    1       14.689 158.444  29.617  0.00  0.00    +0.292 HD
ENDBRANCH  18  20
BRANCH  16  22
ATOM     22  O   LIG    1       14.671 154.156  27.634  0.00  0.00    -0.506 OA
ATOM     23  H   LIG    1       13.988 154.599  27.101  0.00  0.00    +0.292 HD
ENDBRANCH  16  22
ENDBRANCH  12  13
ENDBRANCH   2  12
BRANCH  38  39
ATOM     39  C   LIG    1        9.266 149.754  31.641  0.00  0.00    +0.197 C 
BRANCH  39  40
ATOM     40  O   LIG    1        8.628 151.020  31.541  0.00  0.00    -0.346 OA
BRANCH  40  41
ATOM     41  C   LIG    1        8.233 151.299  30.202  0.00  0.00    +0.282 C 
ATOM     42  C   LIG    1        6.710 151.248  30.091  0.00  0.00    +0.201 C 
ATOM     43  C   LIG    1        6.070 152.437  30.811  0.00  0.00    +0.179 C 
ATOM     44  C   LIG    1        6.686 153.755  30.342  0.00  0.00    +0.174 C 
ATOM     45  C   LIG    1        8.215 153.690  30.445  0.00  0.00    +0.149 C 
ATOM     46  C   LIG    1        8.882 154.929  29.852  0.00  0.00    +0.041 C 
ATOM     53  O   LIG    1        8.731 152.558  29.737  0.00  0.00    -0.343 OA
BRANCH  44  47
ATOM     47  O   LIG    1        6.179 154.800  31.169  0.00  0.00    -0.387 OA
ATOM     48  H   LIG    1        6.270 155.637  30.682  0.00  0.00    +0.210 HD
ENDBRANCH  44  47
BRANCH  43  49
ATOM     49  O   LIG    1        4.667 152.458  30.560  0.00  0.00    -0.386 OA
ATOM     50  H   LIG    1        4.257 151.767  31.108  0.00  0.00    +0.210 HD
ENDBRANCH  43  49
BRANCH  42  51
ATOM     51  O   LIG    1        6.373 151.279  28.704  0.00  0.00    -0.384 OA
ATOM     52  H   LIG    1        6.891 151.984  28.278  0.00  0.00    +0.210 HD
ENDBRANCH  42  51
ENDBRANCH  40  41
ENDBRANCH  39  40
ENDBRANCH  38  39
TORSDOF 16
ENDMDL
MODEL 9
REMARK VINA RESULT:      -8.3      2.126      7.087
REMARK  Name = 5280805
REMARK                            x       y       z     vdW  Elec       q    Type
REMARK                         _______ _______ _______ _____ _____    ______ ____
ROOT
ATOM      1  O   LIG    1       12.529 151.414  32.010  0.00  0.00    -0.331 OA
ATOM      2  C   LIG    1       12.962 151.320  30.655  0.00  0.00    +0.340 C 
ATOM      3  C   LIG    1       13.624 152.625  30.211  0.00  0.00    +0.214 C 
ATOM      4  C   LIG    1       14.748 153.030  31.165  0.00  0.00    +0.180 C 
ATOM      5  C   LIG    1       14.289 152.964  32.622  0.00  0.00    +0.177 C 
ATOM     38  C   LIG    1       13.612 151.624  32.918  0.00  0.00    +0.179 C 
ENDROOT
BRANCH   5   6
ATOM      6  O   LIG    1       15.417 153.121  33.478  0.00  0.00    -0.386 OA
ATOM      7  H   LIG    1       15.808 153.994  33.305  0.00  0.00    +0.210 HD
ENDBRANCH   5   6
BRANCH   4   8
ATOM      8  O   LIG    1       15.146 154.374  30.888  0.00  0.00    -0.386 OA
ATOM      9  H   LIG    1       14.983 154.537  29.943  0.00  0.00    +0.210 HD
ENDBRANCH   4   8
BRANCH   3  10
ATOM     10  O   LIG    1       14.159 152.434  28.902  0.00  0.00    -0.383 OA
ATOM     11  H   LIG    1       13.921 151.539  28.607  0.00  0.00    +0.210 HD
ENDBRANCH   3  10
BRANCH   2  12
ATOM     12  O   LIG    1       11.839 151.086  29.805  0.00  0.00    -0.453 OA
BRANCH  12  13
ATOM     13  C   LIG    1       11.572 149.741  29.678  0.00  0.00    +0.214 A 
ATOM     14  C   LIG    1       12.693 148.838  29.323  0.00  0.00    +0.238 A 
ATOM     15  C   LIG    1       12.369 147.406  29.218  0.00  0.00    +0.109 A 
ATOM     16  C   LIG    1       13.356 146.474  28.886  0.00  0.00    +0.135 A 
ATOM     17  C   LIG    1       13.022 145.122  28.795  0.00  0.00    +0.091 A 
ATOM     18  C   LIG    1       11.712 144.705  29.035  0.00  0.00    +0.124 A 
ATOM     19  C   LIG    1       10.730 145.639  29.367  0.00  0.00    +0.092 A 
ATOM     24  C   LIG    1       11.061 146.991  29.458  0.00  0.00    +0.147 A 
ATOM     25  O   LIG    1       10.054 147.861  29.788  0.00  0.00    -0.451 OA
ATOM     26  O   LIG    1       13.825 149.260  29.129  0.00  0.00    -0.283 OA
ATOM     27  C   LIG    1       10.350 149.212  29.876  0.00  0.00    +0.181 A 
BRANCH  27  28
ATOM     28  C   LIG    1        9.182 150.034  30.238  0.00  0.00    +0.025 A 
ATOM     29  C   LIG    1        9.144 150.690  31.469  0.00  0.00    +0.015 A 
ATOM     30  C   LIG    1        8.038 151.468  31.811  0.00  0.00    +0.050 A 
ATOM     31  C   LIG    1        6.969 151.589  30.924  0.00  0.00    +0.158 A 
ATOM     32  C   LIG    1        7.005 150.933  29.694  0.00  0.00    +0.159 A 
ATOM     37  C   LIG    1        8.112 150.156  29.351  0.00  0.00    +0.060 A 
BRANCH  32  33
ATOM     33  O   LIG    1        5.968 151.045  28.818  0.00  0.00    -0.503 OA
ATOM     34  H   LIG    1        6.307 151.270  27.937  0.00  0.00    +0.292 HD
ENDBRANCH  32  33
BRANCH  31  35
ATOM     35  O   LIG    1        5.893 152.350  31.270  0.00  0.00    -0.503 OA
ATOM     36  H   LIG    1        6.053 153.274  31.023  0.00  0.00    +0.292 HD
ENDBRANCH  31  35
ENDBRANCH  27  28
BRANCH  18  20
ATOM     20  O   LIG    1       11.392 143.385  28.946  0.00  0.00    -0.507 OA
ATOM     21  H   LIG    1       11.144 143.181  28.028  0.00  0.00    +0.292 HD
ENDBRANCH  18  20
BRANCH  16  22
ATOM     22  O   LIG    1       14.649 146.827  28.642  0.00  0.00    -0.506 OA
ATOM     23  H   LIG    1       14.792 147.747  28.921  0.00  0.00    +0.292 HD
ENDBRANCH  16  22
ENDBRANCH  12  13
ENDBRANCH   2  12
BRANCH  38  39
ATOM     39  C   LIG    1       13.042 151.578  34.332  0.00  0.00    +0.197 C 
BRANCH  39  40
ATOM     40  O   LIG    1       13.706 150.558  35.065  0.00  0.00    -0.346 OA
BRANCH  40  41
ATOM     41  C   LIG    1       12.819 149.494  35.396  0.00  0.00    +0.282 C 
ATOM     42  C   LIG    1       12.819 148.455  34.276  0.00  0.00    +0.201 C 
ATOM     43  C   LIG    1       14.145 147.694  34.238  0.00  0.00    +0.179 C 
ATOM     44  C   LIG    1       14.490 147.127  35.615  0.00  0.00    +0.174 C 
ATOM     45  C   LIG    1       14.416 148.234  36.675  0.00  0.00    +0.149 C 
ATOM     46  C   LIG    1       14.610 147.687  38.088  0.00  0.00    +0.041 C 
ATOM     53  O   LIG    1       13.142 148.886  36.650  0.00  0.00    -0.343 OA
BRANCH  44  47
ATOM     47  O   LIG    1       15.809 146.588  35.555  0.00  0.00    -0.387 OA
ATOM     48  H   LIG    1       15.737 145.650  35.310  0.00  0.00    +0.210 HD
ENDBRANCH  44  47
BRANCH  43  49
ATOM     49  O   LIG    1       14.065 146.626  33.297  0.00  0.00    -0.386 OA
ATOM     50  H   LIG    1       14.561 145.873  33.660  0.00  0.00    +0.210 HD
ENDBRANCH  43  49
BRANCH  42  51
ATOM     51  O   LIG    1       11.743 147.548  34.525  0.00  0.00    -0.384 OA
ATOM     52  H   LIG    1       11.688 147.393  35.483  0.00  0.00    +0.210 HD
ENDBRANCH  42  51
ENDBRANCH  40  41
ENDBRANCH  39  40
ENDBRANCH  38  39
TORSDOF 16
ENDMDL
