MODEL 1
REMARK VINA RESULT:      -7.3      0.000      0.000
REMARK  Name = 9823887
REMARK                            x       y       z     vdW  Elec       q    Type
REMARK                         _______ _______ _______ _____ _____    ______ ____
ROOT
ATOM      1  O   LIG    1       -1.624  31.969  62.362  0.00  0.00    -0.341 OA
ATOM      2  C   LIG    1       -2.755  32.658  61.835  0.00  0.00    +0.282 C 
ATOM      3  C   LIG    1       -2.453  34.150  61.692  0.00  0.00    +0.201 C 
ATOM      4  C   LIG    1       -1.183  34.386  60.876  0.00  0.00    +0.179 C 
ATOM      5  C   LIG    1       -0.035  33.509  61.373  0.00  0.00    +0.177 C 
ATOM     22  C   LIG    1       -0.483  32.051  61.507  0.00  0.00    +0.178 C 
ENDROOT
BRANCH   5   6
ATOM      6  O   LIG    1        1.051  33.586  60.453  0.00  0.00    -0.386 OA
ATOM      7  H   LIG    1        1.775  34.073  60.884  0.00  0.00    +0.210 HD
ENDBRANCH   5   6
BRANCH   4   8
ATOM      8  O   LIG    1       -0.783  35.752  61.003  0.00  0.00    -0.386 OA
ATOM      9  H   LIG    1       -0.047  35.898  60.384  0.00  0.00    +0.210 HD
ENDBRANCH   4   8
BRANCH   3  10
ATOM     10  O   LIG    1       -3.560  34.769  61.036  0.00  0.00    -0.384 OA
ATOM     11  H   LIG    1       -3.407  34.722  60.078  0.00  0.00    +0.210 HD
ENDBRANCH   3  10
BRANCH   2  12
ATOM     12  O   LIG    1       -3.863  32.515  62.721  0.00  0.00    -0.345 OA
BRANCH  12  13
ATOM     13  C   LIG    1       -4.648  31.381  62.389  0.00  0.00    +0.190 C 
BRANCH  13  14
ATOM     14  C   LIG    1       -5.712  31.796  61.425  0.00  0.00    +0.001 C 
ATOM     15  C   LIG    1       -6.822  31.078  61.198  0.00  0.00    +0.006 C 
BRANCH  15  16
ATOM     16  C   LIG    1       -7.902  31.454  60.270  0.00  0.00    -0.025 A 
ATOM     17  C   LIG    1       -8.919  32.286  60.712  0.00  0.00    +0.008 A 
ATOM     18  C   LIG    1       -9.941  32.642  59.833  0.00  0.00    +0.001 A 
ATOM     19  C   LIG    1       -9.935  32.161  58.524  0.00  0.00    +0.000 A 
ATOM     20  C   LIG    1       -8.906  31.325  58.093  0.00  0.00    +0.001 A 
ATOM     21  C   LIG    1       -7.883  30.968  58.972  0.00  0.00    +0.008 A 
ENDBRANCH  15  16
ENDBRANCH  13  14
ENDBRANCH  12  13
ENDBRANCH   2  12
BRANCH  22  23
ATOM     23  C   LIG    1        0.611  31.177  62.112  0.00  0.00    +0.197 C 
BRANCH  23  24
ATOM     24  O   LIG    1        1.211  31.882  63.183  0.00  0.00    -0.346 OA
BRANCH  24  25
ATOM     25  C   LIG    1        2.620  31.684  63.223  0.00  0.00    +0.281 C 
ATOM     26  C   LIG    1        3.322  32.997  63.602  0.00  0.00    +0.201 C 
ATOM     27  C   LIG    1        3.158  33.330  65.089  0.00  0.00    +0.178 C 
ATOM     28  C   LIG    1        3.505  32.110  65.943  0.00  0.00    +0.171 C 
ATOM     29  C   LIG    1        2.724  30.888  65.477  0.00  0.00    +0.197 C 
ATOM     36  O   LIG    1        2.988  30.617  64.103  0.00  0.00    -0.346 OA
BRANCH  28  30
ATOM     30  O   LIG    1        3.230  32.384  67.310  0.00  0.00    -0.387 OA
ATOM     31  H   LIG    1        2.485  33.009  67.340  0.00  0.00    +0.210 HD
ENDBRANCH  28  30
BRANCH  27  32
ATOM     32  O   LIG    1        1.808  33.716  65.345  0.00  0.00    -0.386 OA
ATOM     33  H   LIG    1        1.241  33.227  64.724  0.00  0.00    +0.210 HD
ENDBRANCH  27  32
BRANCH  26  34
ATOM     34  O   LIG    1        4.708  32.859  63.300  0.00  0.00    -0.384 OA
ATOM     35  H   LIG    1        4.876  33.262  62.431  0.00  0.00    +0.210 HD
ENDBRANCH  26  34
ENDBRANCH  24  25
ENDBRANCH  23  24
ENDBRANCH  22  23
TORSDOF 13
ENDMDL
MODEL 2
REMARK VINA RESULT:      -7.1      4.360     12.230
REMARK  Name = 9823887
REMARK                            x       y       z     vdW  Elec       q    Type
REMARK                         _______ _______ _______ _____ _____    ______ ____
ROOT
ATOM      1  O   LIG    1        3.974  30.988  66.451  0.00  0.00    -0.341 OA
ATOM      2  C   LIG    1        4.377  31.714  67.610  0.00  0.00    +0.282 C 
ATOM      3  C   LIG    1        5.394  32.794  67.239  0.00  0.00    +0.201 C 
ATOM      4  C   LIG    1        4.865  33.699  66.128  0.00  0.00    +0.179 C 
ATOM      5  C   LIG    1        4.296  32.880  64.970  0.00  0.00    +0.177 C 
ATOM     22  C   LIG    1        3.325  31.815  65.484  0.00  0.00    +0.178 C 
ENDROOT
BRANCH   5   6
ATOM      6  O   LIG    1        3.612  33.747  64.069  0.00  0.00    -0.386 OA
ATOM      7  H   LIG    1        4.249  34.043  63.396  0.00  0.00    +0.210 HD
ENDBRANCH   5   6
BRANCH   4   8
ATOM      8  O   LIG    1        5.933  34.501  65.619  0.00  0.00    -0.386 OA
ATOM      9  H   LIG    1        5.703  34.746  64.706  0.00  0.00    +0.210 HD
ENDBRANCH   4   8
BRANCH   3  10
ATOM     10  O   LIG    1        5.659  33.577  68.403  0.00  0.00    -0.384 OA
ATOM     11  H   LIG    1        4.830  33.666  68.902  0.00  0.00    +0.210 HD
ENDBRANCH   3  10
BRANCH   2  12
ATOM     12  O   LIG    1        4.993  30.830  68.544  0.00  0.00    -0.345 OA
BRANCH  12  13
ATOM     13  C   LIG    1        5.473  29.657  67.905  0.00  0.00    +0.190 C 
BRANCH  13  14
ATOM     14  C   LIG    1        6.955  29.581  68.088  0.00  0.00    +0.001 C 
ATOM     15  C   LIG    1        7.568  29.846  69.252  0.00  0.00    +0.006 C 
BRANCH  15  16
ATOM     16  C   LIG    1        9.021  29.770  69.483  0.00  0.00    -0.025 A 
ATOM     17  C   LIG    1        9.634  28.529  69.553  0.00  0.00    +0.008 A 
ATOM     18  C   LIG    1       11.009  28.458  69.771  0.00  0.00    +0.001 A 
ATOM     19  C   LIG    1       11.754  29.627  69.917  0.00  0.00    +0.000 A 
ATOM     20  C   LIG    1       11.124  30.869  69.845  0.00  0.00    +0.001 A 
ATOM     21  C   LIG    1        9.748  30.941  69.626  0.00  0.00    +0.008 A 
ENDBRANCH  15  16
ENDBRANCH  13  14
ENDBRANCH  12  13
ENDBRANCH   2  12
BRANCH  22  23
ATOM     23  C   LIG    1        2.833  30.908  64.359  0.00  0.00    +0.197 C 
BRANCH  23  24
ATOM     24  O   LIG    1        1.626  31.442  63.846  0.00  0.00    -0.346 OA
BRANCH  24  25
ATOM     25  C   LIG    1        1.543  31.297  62.432  0.00  0.00    +0.281 C 
ATOM     26  C   LIG    1        0.159  30.757  62.042  0.00  0.00    +0.201 C 
ATOM     27  C   LIG    1       -0.932  31.826  62.165  0.00  0.00    +0.178 C 
ATOM     28  C   LIG    1       -0.490  33.113  61.466  0.00  0.00    +0.171 C 
ATOM     29  C   LIG    1        0.882  33.549  61.962  0.00  0.00    +0.197 C 
ATOM     36  O   LIG    1        1.844  32.519  61.749  0.00  0.00    -0.346 OA
BRANCH  28  30
ATOM     30  O   LIG    1       -1.448  34.138  61.692  0.00  0.00    -0.387 OA
ATOM     31  H   LIG    1       -1.228  34.880  61.103  0.00  0.00    +0.210 HD
ENDBRANCH  28  30
BRANCH  27  32
ATOM     32  O   LIG    1       -1.180  32.099  63.543  0.00  0.00    -0.386 OA
ATOM     33  H   LIG    1       -0.543  31.580  64.064  0.00  0.00    +0.210 HD
ENDBRANCH  27  32
BRANCH  26  34
ATOM     34  O   LIG    1        0.226  30.305  60.692  0.00  0.00    -0.384 OA
ATOM     35  H   LIG    1       -0.406  29.576  60.579  0.00  0.00    +0.210 HD
ENDBRANCH  26  34
ENDBRANCH  24  25
ENDBRANCH  23  24
ENDBRANCH  22  23
TORSDOF 13
ENDMDL
MODEL 3
REMARK VINA RESULT:      -7.1      4.279     12.055
REMARK  Name = 9823887
REMARK                            x       y       z     vdW  Elec       q    Type
REMARK                         _______ _______ _______ _____ _____    ______ ____
ROOT
ATOM      1  O   LIG    1        3.933  31.063  66.143  0.00  0.00    -0.341 OA
ATOM      2  C   LIG    1        4.204  31.745  67.365  0.00  0.00    +0.282 C 
ATOM      3  C   LIG    1        5.265  32.825  67.152  0.00  0.00    +0.201 C 
ATOM      4  C   LIG    1        4.873  33.774  66.020  0.00  0.00    +0.179 C 
ATOM      5  C   LIG    1        4.435  33.001  64.776  0.00  0.00    +0.177 C 
ATOM     22  C   LIG    1        3.404  31.929  65.138  0.00  0.00    +0.178 C 
ENDROOT
BRANCH   5   6
ATOM      6  O   LIG    1        3.864  33.906  63.835  0.00  0.00    -0.386 OA
ATOM      7  H   LIG    1        3.758  34.768  64.274  0.00  0.00    +0.210 HD
ENDBRANCH   5   6
BRANCH   4   8
ATOM      8  O   LIG    1        5.997  34.581  65.665  0.00  0.00    -0.386 OA
ATOM      9  H   LIG    1        5.686  35.251  65.033  0.00  0.00    +0.210 HD
ENDBRANCH   4   8
BRANCH   3  10
ATOM     10  O   LIG    1        5.400  33.565  68.365  0.00  0.00    -0.384 OA
ATOM     11  H   LIG    1        5.796  32.980  69.032  0.00  0.00    +0.210 HD
ENDBRANCH   3  10
BRANCH   2  12
ATOM     12  O   LIG    1        4.704  30.822  68.331  0.00  0.00    -0.345 OA
BRANCH  12  13
ATOM     13  C   LIG    1        5.109  29.606  67.723  0.00  0.00    +0.190 C 
BRANCH  13  14
ATOM     14  C   LIG    1        6.575  29.419  67.950  0.00  0.00    +0.001 C 
ATOM     15  C   LIG    1        7.166  29.602  69.140  0.00  0.00    +0.006 C 
BRANCH  15  16
ATOM     16  C   LIG    1        8.602  29.416  69.413  0.00  0.00    -0.025 A 
ATOM     17  C   LIG    1        9.458  30.502  69.316  0.00  0.00    +0.008 A 
ATOM     18  C   LIG    1       10.816  30.325  69.575  0.00  0.00    +0.001 A 
ATOM     19  C   LIG    1       11.302  29.066  69.926  0.00  0.00    +0.000 A 
ATOM     20  C   LIG    1       10.429  27.983  70.020  0.00  0.00    +0.001 A 
ATOM     21  C   LIG    1        9.069  28.159  69.762  0.00  0.00    +0.008 A 
ENDBRANCH  15  16
ENDBRANCH  13  14
ENDBRANCH  12  13
ENDBRANCH   2  12
BRANCH  22  23
ATOM     23  C   LIG    1        3.038  31.068  63.933  0.00  0.00    +0.197 C 
BRANCH  23  24
ATOM     24  O   LIG    1        1.809  31.532  63.403  0.00  0.00    -0.346 OA
BRANCH  24  25
ATOM     25  C   LIG    1        0.740  30.635  63.684  0.00  0.00    +0.281 C 
ATOM     26  C   LIG    1       -0.530  31.427  64.030  0.00  0.00    +0.201 C 
ATOM     27  C   LIG    1       -1.167  32.065  62.791  0.00  0.00    +0.178 C 
ATOM     28  C   LIG    1       -1.304  31.027  61.676  0.00  0.00    +0.171 C 
ATOM     29  C   LIG    1        0.029  30.336  61.418  0.00  0.00    +0.197 C 
ATOM     36  O   LIG    1        0.513  29.718  62.608  0.00  0.00    -0.346 OA
BRANCH  28  30
ATOM     30  O   LIG    1       -1.776  31.651  60.490  0.00  0.00    -0.387 OA
ATOM     31  H   LIG    1       -2.693  31.359  60.349  0.00  0.00    +0.210 HD
ENDBRANCH  28  30
BRANCH  27  32
ATOM     32  O   LIG    1       -0.350  33.141  62.334  0.00  0.00    -0.386 OA
ATOM     33  H   LIG    1        0.567  32.817  62.294  0.00  0.00    +0.210 HD
ENDBRANCH  27  32
BRANCH  26  34
ATOM     34  O   LIG    1       -1.460  30.528  64.629  0.00  0.00    -0.384 OA
ATOM     35  H   LIG    1       -1.271  30.480  65.581  0.00  0.00    +0.210 HD
ENDBRANCH  26  34
ENDBRANCH  24  25
ENDBRANCH  23  24
ENDBRANCH  22  23
TORSDOF 13
ENDMDL
MODEL 4
REMARK VINA RESULT:      -7.1      4.256     11.732
REMARK  Name = 9823887
REMARK                            x       y       z     vdW  Elec       q    Type
REMARK                         _______ _______ _______ _____ _____    ______ ____
ROOT
ATOM      1  O   LIG    1        2.450  30.651  66.074  0.00  0.00    -0.341 OA
ATOM      2  C   LIG    1        3.732  30.870  66.657  0.00  0.00    +0.282 C 
ATOM      3  C   LIG    1        4.691  31.475  65.630  0.00  0.00    +0.201 C 
ATOM      4  C   LIG    1        4.105  32.736  64.998  0.00  0.00    +0.179 C 
ATOM      5  C   LIG    1        2.670  32.506  64.528  0.00  0.00    +0.177 C 
ATOM     22  C   LIG    1        1.832  31.863  65.637  0.00  0.00    +0.178 C 
ENDROOT
BRANCH   5   6
ATOM      6  O   LIG    1        2.087  33.753  64.160  0.00  0.00    -0.386 OA
ATOM      7  H   LIG    1        2.139  33.834  63.191  0.00  0.00    +0.210 HD
ENDBRANCH   5   6
BRANCH   4   8
ATOM      8  O   LIG    1        4.888  33.105  63.861  0.00  0.00    -0.386 OA
ATOM      9  H   LIG    1        4.696  34.038  63.665  0.00  0.00    +0.210 HD
ENDBRANCH   4   8
BRANCH   3  10
ATOM     10  O   LIG    1        5.911  31.800  66.296  0.00  0.00    -0.384 OA
ATOM     11  H   LIG    1        6.495  31.024  66.250  0.00  0.00    +0.210 HD
ENDBRANCH   3  10
BRANCH   2  12
ATOM     12  O   LIG    1        4.281  29.628  67.094  0.00  0.00    -0.345 OA
BRANCH  12  13
ATOM     13  C   LIG    1        4.114  29.454  68.492  0.00  0.00    +0.190 C 
BRANCH  13  14
ATOM     14  C   LIG    1        5.403  28.969  69.074  0.00  0.00    +0.001 C 
ATOM     15  C   LIG    1        6.599  29.482  68.748  0.00  0.00    +0.006 C 
BRANCH  15  16
ATOM     16  C   LIG    1        7.891  29.047  69.305  0.00  0.00    -0.025 A 
ATOM     17  C   LIG    1        8.001  27.780  69.857  0.00  0.00    +0.008 A 
ATOM     18  C   LIG    1        9.224  27.369  70.384  0.00  0.00    +0.001 A 
ATOM     19  C   LIG    1       10.322  28.229  70.354  0.00  0.00    +0.000 A 
ATOM     20  C   LIG    1       10.197  29.500  69.796  0.00  0.00    +0.001 A 
ATOM     21  C   LIG    1        8.973  29.912  69.268  0.00  0.00    +0.008 A 
ENDBRANCH  15  16
ENDBRANCH  13  14
ENDBRANCH  12  13
ENDBRANCH   2  12
BRANCH  22  23
ATOM     23  C   LIG    1        0.427  31.516  65.154  0.00  0.00    +0.197 C 
BRANCH  23  24
ATOM     24  O   LIG    1        0.510  31.054  63.818  0.00  0.00    -0.346 OA
BRANCH  24  25
ATOM     25  C   LIG    1       -0.511  31.614  63.001  0.00  0.00    +0.281 C 
ATOM     26  C   LIG    1       -0.112  31.511  61.520  0.00  0.00    +0.201 C 
ATOM     27  C   LIG    1       -0.237  30.079  60.988  0.00  0.00    +0.178 C 
ATOM     28  C   LIG    1       -1.602  29.497  61.359  0.00  0.00    +0.171 C 
ATOM     29  C   LIG    1       -1.860  29.642  62.853  0.00  0.00    +0.197 C 
ATOM     36  O   LIG    1       -1.787  31.010  63.246  0.00  0.00    -0.346 OA
BRANCH  28  30
ATOM     30  O   LIG    1       -1.664  28.130  60.975  0.00  0.00    -0.387 OA
ATOM     31  H   LIG    1       -1.947  28.099  60.045  0.00  0.00    +0.210 HD
ENDBRANCH  28  30
BRANCH  27  32
ATOM     32  O   LIG    1        0.791  29.268  61.554  0.00  0.00    -0.386 OA
ATOM     33  H   LIG    1        0.360  28.521  62.005  0.00  0.00    +0.210 HD
ENDBRANCH  27  32
BRANCH  26  34
ATOM     34  O   LIG    1       -0.969  32.369  60.772  0.00  0.00    -0.384 OA
ATOM     35  H   LIG    1       -0.938  33.256  61.168  0.00  0.00    +0.210 HD
ENDBRANCH  26  34
ENDBRANCH  24  25
ENDBRANCH  23  24
ENDBRANCH  22  23
TORSDOF 13
ENDMDL
MODEL 5
REMARK VINA RESULT:      -7.1      2.913      9.849
REMARK  Name = 9823887
REMARK                            x       y       z     vdW  Elec       q    Type
REMARK                         _______ _______ _______ _____ _____    ______ ____
ROOT
ATOM      1  O   LIG    1       -1.082  32.245  62.101  0.00  0.00    -0.341 OA
ATOM      2  C   LIG    1       -0.200  31.380  61.389  0.00  0.00    +0.282 C 
ATOM      3  C   LIG    1       -0.695  29.934  61.462  0.00  0.00    +0.201 C 
ATOM      4  C   LIG    1       -2.144  29.818  60.993  0.00  0.00    +0.179 C 
ATOM      5  C   LIG    1       -3.029  30.869  61.662  0.00  0.00    +0.177 C 
ATOM     22  C   LIG    1       -2.400  32.260  61.549  0.00  0.00    +0.178 C 
ENDROOT
BRANCH   5   6
ATOM      6  O   LIG    1       -4.308  30.878  61.034  0.00  0.00    -0.386 OA
ATOM      7  H   LIG    1       -4.420  31.739  60.594  0.00  0.00    +0.210 HD
ENDBRANCH   5   6
BRANCH   4   8
ATOM      8  O   LIG    1       -2.653  28.528  61.338  0.00  0.00    -0.386 OA
ATOM      9  H   LIG    1       -2.936  28.097  60.514  0.00  0.00    +0.210 HD
ENDBRANCH   4   8
BRANCH   3  10
ATOM     10  O   LIG    1        0.140  29.134  60.625  0.00  0.00    -0.384 OA
ATOM     11  H   LIG    1        0.306  29.627  59.805  0.00  0.00    +0.210 HD
ENDBRANCH   3  10
BRANCH   2  12
ATOM     12  O   LIG    1        1.100  31.431  61.973  0.00  0.00    -0.345 OA
BRANCH  12  13
ATOM     13  C   LIG    1        1.543  32.769  62.132  0.00  0.00    +0.190 C 
BRANCH  13  14
ATOM     14  C   LIG    1        2.264  32.886  63.436  0.00  0.00    +0.001 C 
ATOM     15  C   LIG    1        3.539  32.505  63.611  0.00  0.00    +0.006 C 
BRANCH  15  16
ATOM     16  C   LIG    1        4.293  32.615  64.871  0.00  0.00    -0.025 A 
ATOM     17  C   LIG    1        4.673  31.461  65.538  0.00  0.00    +0.008 A 
ATOM     18  C   LIG    1        5.387  31.566  66.731  0.00  0.00    +0.001 A 
ATOM     19  C   LIG    1        5.711  32.822  67.243  0.00  0.00    +0.000 A 
ATOM     20  C   LIG    1        5.321  33.974  66.562  0.00  0.00    +0.001 A 
ATOM     21  C   LIG    1        4.607  33.870  65.368  0.00  0.00    +0.008 A 
ENDBRANCH  15  16
ENDBRANCH  13  14
ENDBRANCH  12  13
ENDBRANCH   2  12
BRANCH  22  23
ATOM     23  C   LIG    1       -3.206  33.308  62.310  0.00  0.00    +0.197 C 
BRANCH  23  24
ATOM     24  O   LIG    1       -4.130  32.643  63.152  0.00  0.00    -0.346 OA
BRANCH  24  25
ATOM     25  C   LIG    1       -4.921  33.561  63.898  0.00  0.00    +0.281 C 
ATOM     26  C   LIG    1       -5.924  34.262  62.970  0.00  0.00    +0.201 C 
ATOM     27  C   LIG    1       -7.077  33.338  62.565  0.00  0.00    +0.178 C 
ATOM     28  C   LIG    1       -7.667  32.658  63.802  0.00  0.00    +0.171 C 
ATOM     29  C   LIG    1       -6.571  31.984  64.617  0.00  0.00    +0.197 C 
ATOM     36  O   LIG    1       -5.577  32.930  65.003  0.00  0.00    -0.346 OA
BRANCH  28  30
ATOM     30  O   LIG    1       -8.648  31.709  63.409  0.00  0.00    -0.387 OA
ATOM     31  H   LIG    1       -8.291  31.214  62.652  0.00  0.00    +0.210 HD
ENDBRANCH  28  30
BRANCH  27  32
ATOM     32  O   LIG    1       -6.597  32.342  61.663  0.00  0.00    -0.386 OA
ATOM     33  H   LIG    1       -5.665  32.174  61.883  0.00  0.00    +0.210 HD
ENDBRANCH  27  32
BRANCH  26  34
ATOM     34  O   LIG    1       -6.447  35.395  63.660  0.00  0.00    -0.384 OA
ATOM     35  H   LIG    1       -5.707  35.978  63.899  0.00  0.00    +0.210 HD
ENDBRANCH  26  34
ENDBRANCH  24  25
ENDBRANCH  23  24
ENDBRANCH  22  23
TORSDOF 13
ENDMDL
MODEL 6
REMARK VINA RESULT:      -7.0      3.551     11.276
REMARK  Name = 9823887
REMARK                            x       y       z     vdW  Elec       q    Type
REMARK                         _______ _______ _______ _____ _____    ______ ____
ROOT
ATOM      1  O   LIG    1        2.076  31.381  65.642  0.00  0.00    -0.341 OA
ATOM      2  C   LIG    1        3.200  31.928  66.328  0.00  0.00    +0.282 C 
ATOM      3  C   LIG    1        4.410  32.005  65.397  0.00  0.00    +0.201 C 
ATOM      4  C   LIG    1        4.076  32.761  64.112  0.00  0.00    +0.179 C 
ATOM      5  C   LIG    1        2.776  32.251  63.491  0.00  0.00    +0.177 C 
ATOM     22  C   LIG    1        1.662  32.187  64.539  0.00  0.00    +0.178 C 
ENDROOT
BRANCH   5   6
ATOM      6  O   LIG    1        2.382  33.125  62.436  0.00  0.00    -0.386 OA
ATOM      7  H   LIG    1        3.081  33.111  61.759  0.00  0.00    +0.210 HD
ENDBRANCH   5   6
BRANCH   4   8
ATOM      8  O   LIG    1        5.124  32.570  63.160  0.00  0.00    -0.386 OA
ATOM      9  H   LIG    1        5.354  31.625  63.167  0.00  0.00    +0.210 HD
ENDBRANCH   4   8
BRANCH   3  10
ATOM     10  O   LIG    1        5.462  32.681  66.085  0.00  0.00    -0.384 OA
ATOM     11  H   LIG    1        5.380  32.480  67.032  0.00  0.00    +0.210 HD
ENDBRANCH   3  10
BRANCH   2  12
ATOM     12  O   LIG    1        3.546  31.091  67.431  0.00  0.00    -0.345 OA
BRANCH  12  13
ATOM     13  C   LIG    1        3.790  29.758  67.012  0.00  0.00    +0.190 C 
BRANCH  13  14
ATOM     14  C   LIG    1        4.849  29.165  67.885  0.00  0.00    +0.001 C 
ATOM     15  C   LIG    1        6.111  29.617  67.924  0.00  0.00    +0.006 C 
BRANCH  15  16
ATOM     16  C   LIG    1        7.182  29.075  68.778  0.00  0.00    -0.025 A 
ATOM     17  C   LIG    1        8.300  29.851  69.041  0.00  0.00    +0.008 A 
ATOM     18  C   LIG    1        9.313  29.336  69.849  0.00  0.00    +0.001 A 
ATOM     19  C   LIG    1        9.197  28.053  70.384  0.00  0.00    +0.000 A 
ATOM     20  C   LIG    1        8.066  27.284  70.110  0.00  0.00    +0.001 A 
ATOM     21  C   LIG    1        7.052  27.798  69.301  0.00  0.00    +0.008 A 
ENDBRANCH  15  16
ENDBRANCH  13  14
ENDBRANCH  12  13
ENDBRANCH   2  12
BRANCH  22  23
ATOM     23  C   LIG    1        0.387  31.571  63.971  0.00  0.00    +0.197 C 
BRANCH  23  24
ATOM     24  O   LIG    1       -0.373  32.595  63.355  0.00  0.00    -0.346 OA
BRANCH  24  25
ATOM     25  C   LIG    1       -0.953  32.159  62.130  0.00  0.00    +0.281 C 
ATOM     26  C   LIG    1       -2.476  32.358  62.172  0.00  0.00    +0.201 C 
ATOM     27  C   LIG    1       -2.869  33.832  62.028  0.00  0.00    +0.178 C 
ATOM     28  C   LIG    1       -2.141  34.457  60.836  0.00  0.00    +0.171 C 
ATOM     29  C   LIG    1       -0.641  34.207  60.932  0.00  0.00    +0.197 C 
ATOM     36  O   LIG    1       -0.368  32.810  60.997  0.00  0.00    -0.346 OA
BRANCH  28  30
ATOM     30  O   LIG    1       -2.410  35.851  60.784  0.00  0.00    -0.387 OA
ATOM     31  H   LIG    1       -3.238  36.009  61.270  0.00  0.00    +0.210 HD
ENDBRANCH  28  30
BRANCH  27  32
ATOM     32  O   LIG    1       -2.518  34.538  63.217  0.00  0.00    -0.386 OA
ATOM     33  H   LIG    1       -2.420  33.883  63.929  0.00  0.00    +0.210 HD
ENDBRANCH  27  32
BRANCH  26  34
ATOM     34  O   LIG    1       -3.048  31.610  61.102  0.00  0.00    -0.384 OA
ATOM     35  H   LIG    1       -3.251  30.717  61.425  0.00  0.00    +0.210 HD
ENDBRANCH  26  34
ENDBRANCH  24  25
ENDBRANCH  23  24
ENDBRANCH  22  23
TORSDOF 13
ENDMDL
MODEL 7
REMARK VINA RESULT:      -6.9     15.972     19.190
REMARK  Name = 9823887
REMARK                            x       y       z     vdW  Elec       q    Type
REMARK                         _______ _______ _______ _____ _____    ______ ____
ROOT
ATOM      1  O   LIG    1        5.695  16.729  66.589  0.00  0.00    -0.341 OA
ATOM      2  C   LIG    1        5.630  17.783  65.631  0.00  0.00    +0.282 C 
ATOM      3  C   LIG    1        7.028  18.335  65.347  0.00  0.00    +0.201 C 
ATOM      4  C   LIG    1        7.993  17.223  64.940  0.00  0.00    +0.179 C 
ATOM      5  C   LIG    1        7.916  16.041  65.905  0.00  0.00    +0.177 C 
ATOM     22  C   LIG    1        6.463  15.616  66.129  0.00  0.00    +0.178 C 
ENDROOT
BRANCH   5   6
ATOM      6  O   LIG    1        8.651  14.944  65.368  0.00  0.00    -0.386 OA
ATOM      7  H   LIG    1        8.453  14.158  65.907  0.00  0.00    +0.210 HD
ENDBRANCH   5   6
BRANCH   4   8
ATOM      8  O   LIG    1        9.331  17.724  64.960  0.00  0.00    -0.386 OA
ATOM      9  H   LIG    1        9.350  18.526  64.412  0.00  0.00    +0.210 HD
ENDBRANCH   4   8
BRANCH   3  10
ATOM     10  O   LIG    1        6.926  19.287  64.289  0.00  0.00    -0.384 OA
ATOM     11  H   LIG    1        6.644  18.816  63.487  0.00  0.00    +0.210 HD
ENDBRANCH   3  10
BRANCH   2  12
ATOM     12  O   LIG    1        4.830  18.848  66.140  0.00  0.00    -0.345 OA
BRANCH  12  13
ATOM     13  C   LIG    1        4.383  18.575  67.458  0.00  0.00    +0.190 C 
BRANCH  13  14
ATOM     14  C   LIG    1        4.917  19.626  68.376  0.00  0.00    +0.001 C 
ATOM     15  C   LIG    1        5.986  20.383  68.087  0.00  0.00    +0.006 C 
BRANCH  15  16
ATOM     16  C   LIG    1        6.539  21.439  68.953  0.00  0.00    -0.025 A 
ATOM     17  C   LIG    1        6.978  22.624  68.384  0.00  0.00    +0.008 A 
ATOM     18  C   LIG    1        7.500  23.623  69.204  0.00  0.00    +0.001 A 
ATOM     19  C   LIG    1        7.580  23.425  70.582  0.00  0.00    +0.000 A 
ATOM     20  C   LIG    1        7.135  22.227  71.141  0.00  0.00    +0.001 A 
ATOM     21  C   LIG    1        6.611  21.227  70.320  0.00  0.00    +0.008 A 
ENDBRANCH  15  16
ENDBRANCH  13  14
ENDBRANCH  12  13
ENDBRANCH   2  12
BRANCH  22  23
ATOM     23  C   LIG    1        6.351  14.513  67.178  0.00  0.00    +0.197 C 
BRANCH  23  24
ATOM     24  O   LIG    1        5.224  13.713  66.872  0.00  0.00    -0.346 OA
BRANCH  24  25
ATOM     25  C   LIG    1        4.338  13.604  67.981  0.00  0.00    +0.281 C 
ATOM     26  C   LIG    1        3.540  14.907  68.144  0.00  0.00    +0.201 C 
ATOM     27  C   LIG    1        2.454  15.055  67.074  0.00  0.00    +0.178 C 
ATOM     28  C   LIG    1        1.630  13.769  66.979  0.00  0.00    +0.171 C 
ATOM     29  C   LIG    1        2.539  12.561  66.795  0.00  0.00    +0.197 C 
ATOM     36  O   LIG    1        3.473  12.468  67.867  0.00  0.00    -0.346 OA
BRANCH  28  30
ATOM     30  O   LIG    1        0.709  13.865  65.901  0.00  0.00    -0.387 OA
ATOM     31  H   LIG    1        0.037  14.524  66.147  0.00  0.00    +0.210 HD
ENDBRANCH  28  30
BRANCH  27  32
ATOM     32  O   LIG    1        3.060  15.320  65.810  0.00  0.00    -0.386 OA
ATOM     33  H   LIG    1        3.579  14.535  65.564  0.00  0.00    +0.210 HD
ENDBRANCH  27  32
BRANCH  26  34
ATOM     34  O   LIG    1        2.934  14.895  69.434  0.00  0.00    -0.384 OA
ATOM     35  H   LIG    1        3.106  14.032  69.846  0.00  0.00    +0.210 HD
ENDBRANCH  26  34
ENDBRANCH  24  25
ENDBRANCH  23  24
ENDBRANCH  22  23
TORSDOF 13
ENDMDL
MODEL 8
REMARK VINA RESULT:      -6.9      3.862     11.342
REMARK  Name = 9823887
REMARK                            x       y       z     vdW  Elec       q    Type
REMARK                         _______ _______ _______ _____ _____    ______ ____
ROOT
ATOM      1  O   LIG    1        2.810  31.644  64.595  0.00  0.00    -0.341 OA
ATOM      2  C   LIG    1        3.332  30.652  65.476  0.00  0.00    +0.282 C 
ATOM      3  C   LIG    1        2.291  29.561  65.730  0.00  0.00    +0.201 C 
ATOM      4  C   LIG    1        1.768  28.973  64.420  0.00  0.00    +0.179 C 
ATOM      5  C   LIG    1        1.367  30.075  63.440  0.00  0.00    +0.177 C 
ATOM     22  C   LIG    1        2.481  31.117  63.308  0.00  0.00    +0.178 C 
ENDROOT
BRANCH   5   6
ATOM      6  O   LIG    1        1.107  29.499  62.163  0.00  0.00    -0.386 OA
ATOM      7  H   LIG    1        0.963  30.224  61.530  0.00  0.00    +0.210 HD
ENDBRANCH   5   6
BRANCH   4   8
ATOM      8  O   LIG    1        0.613  28.175  64.684  0.00  0.00    -0.386 OA
ATOM      9  H   LIG    1       -0.158  28.654  64.334  0.00  0.00    +0.210 HD
ENDBRANCH   4   8
BRANCH   3  10
ATOM     10  O   LIG    1        2.904  28.529  66.502  0.00  0.00    -0.384 OA
ATOM     11  H   LIG    1        2.584  27.673  66.170  0.00  0.00    +0.210 HD
ENDBRANCH   3  10
BRANCH   2  12
ATOM     12  O   LIG    1        3.663  31.246  66.729  0.00  0.00    -0.345 OA
BRANCH  12  13
ATOM     13  C   LIG    1        5.061  31.458  66.847  0.00  0.00    +0.190 C 
BRANCH  13  14
ATOM     14  C   LIG    1        5.628  30.429  67.771  0.00  0.00    +0.001 C 
ATOM     15  C   LIG    1        6.945  30.225  67.928  0.00  0.00    +0.006 C 
BRANCH  15  16
ATOM     16  C   LIG    1        7.549  29.234  68.835  0.00  0.00    -0.025 A 
ATOM     17  C   LIG    1        8.775  29.508  69.421  0.00  0.00    +0.008 A 
ATOM     18  C   LIG    1        9.346  28.570  70.280  0.00  0.00    +0.001 A 
ATOM     19  C   LIG    1        8.686  27.370  70.541  0.00  0.00    +0.000 A 
ATOM     20  C   LIG    1        7.453  27.108  69.945  0.00  0.00    +0.001 A 
ATOM     21  C   LIG    1        6.881  28.046  69.085  0.00  0.00    +0.008 A 
ENDBRANCH  15  16
ENDBRANCH  13  14
ENDBRANCH  12  13
ENDBRANCH   2  12
BRANCH  22  23
ATOM     23  C   LIG    1        2.058  32.287  62.425  0.00  0.00    +0.197 C 
BRANCH  23  24
ATOM     24  O   LIG    1        0.660  32.470  62.558  0.00  0.00    -0.346 OA
BRANCH  24  25
ATOM     25  C   LIG    1        0.001  32.432  61.297  0.00  0.00    +0.281 C 
ATOM     26  C   LIG    1       -1.507  32.216  61.502  0.00  0.00    +0.201 C 
ATOM     27  C   LIG    1       -2.205  33.478  62.020  0.00  0.00    +0.178 C 
ATOM     28  C   LIG    1       -1.808  34.686  61.169  0.00  0.00    +0.171 C 
ATOM     29  C   LIG    1       -0.292  34.797  61.068  0.00  0.00    +0.197 C 
ATOM     36  O   LIG    1        0.264  33.605  60.518  0.00  0.00    -0.346 OA
BRANCH  28  30
ATOM     30  O   LIG    1       -2.356  35.871  61.728  0.00  0.00    -0.387 OA
ATOM     31  H   LIG    1       -1.959  36.627  61.262  0.00  0.00    +0.210 HD
ENDBRANCH  28  30
BRANCH  27  32
ATOM     32  O   LIG    1       -1.826  33.712  63.375  0.00  0.00    -0.386 OA
ATOM     33  H   LIG    1       -1.390  34.581  63.412  0.00  0.00    +0.210 HD
ENDBRANCH  27  32
BRANCH  26  34
ATOM     34  O   LIG    1       -2.073  31.844  60.248  0.00  0.00    -0.384 OA
ATOM     35  H   LIG    1       -2.055  32.617  59.661  0.00  0.00    +0.210 HD
ENDBRANCH  26  34
ENDBRANCH  24  25
ENDBRANCH  23  24
ENDBRANCH  22  23
TORSDOF 13
ENDMDL
MODEL 9
REMARK VINA RESULT:      -6.7      9.554     14.171
REMARK  Name = 9823887
REMARK                            x       y       z     vdW  Elec       q    Type
REMARK                         _______ _______ _______ _____ _____    ______ ____
ROOT
ATOM      1  O   LIG    1        7.393  28.161  70.156  0.00  0.00    -0.341 OA
ATOM      2  C   LIG    1        8.644  27.634  70.593  0.00  0.00    +0.282 C 
ATOM      3  C   LIG    1        9.794  28.256  69.799  0.00  0.00    +0.201 C 
ATOM      4  C   LIG    1        9.744  29.782  69.850  0.00  0.00    +0.179 C 
ATOM      5  C   LIG    1        8.343  30.302  69.530  0.00  0.00    +0.177 C 
ATOM     22  C   LIG    1        7.288  29.570  70.365  0.00  0.00    +0.178 C 
ENDROOT
BRANCH   5   6
ATOM      6  O   LIG    1        8.281  31.698  69.811  0.00  0.00    -0.386 OA
ATOM      7  H   LIG    1        9.155  31.977  70.135  0.00  0.00    +0.210 HD
ENDBRANCH   5   6
BRANCH   4   8
ATOM      8  O   LIG    1       10.646  30.320  68.881  0.00  0.00    -0.386 OA
ATOM      9  H   LIG    1       11.396  30.706  69.365  0.00  0.00    +0.210 HD
ENDBRANCH   4   8
BRANCH   3  10
ATOM     10  O   LIG    1       11.023  27.802  70.363  0.00  0.00    -0.384 OA
ATOM     11  H   LIG    1       11.038  28.059  71.300  0.00  0.00    +0.210 HD
ENDBRANCH   3  10
BRANCH   2  12
ATOM     12  O   LIG    1        8.674  26.224  70.381  0.00  0.00    -0.345 OA
BRANCH  12  13
ATOM     13  C   LIG    1        8.314  25.517  71.557  0.00  0.00    +0.190 C 
BRANCH  13  14
ATOM     14  C   LIG    1        7.639  24.242  71.164  0.00  0.00    +0.001 C 
ATOM     15  C   LIG    1        7.633  23.767  69.909  0.00  0.00    +0.006 C 
BRANCH  15  16
ATOM     16  C   LIG    1        6.995  22.511  69.479  0.00  0.00    -0.025 A 
ATOM     17  C   LIG    1        6.620  21.578  70.434  0.00  0.00    +0.008 A 
ATOM     18  C   LIG    1        6.017  20.389  70.026  0.00  0.00    +0.001 A 
ATOM     19  C   LIG    1        5.796  20.147  68.670  0.00  0.00    +0.000 A 
ATOM     20  C   LIG    1        6.179  21.094  67.721  0.00  0.00    +0.001 A 
ATOM     21  C   LIG    1        6.783  22.284  68.129  0.00  0.00    +0.008 A 
ENDBRANCH  15  16
ENDBRANCH  13  14
ENDBRANCH  12  13
ENDBRANCH   2  12
BRANCH  22  23
ATOM     23  C   LIG    1        5.872  29.989  69.980  0.00  0.00    +0.197 C 
BRANCH  23  24
ATOM     24  O   LIG    1        5.861  30.328  68.605  0.00  0.00    -0.346 OA
BRANCH  24  25
ATOM     25  C   LIG    1        4.586  30.807  68.190  0.00  0.00    +0.281 C 
ATOM     26  C   LIG    1        4.369  32.235  68.712  0.00  0.00    +0.201 C 
ATOM     27  C   LIG    1        5.196  33.265  67.936  0.00  0.00    +0.178 C 
ATOM     28  C   LIG    1        5.010  33.064  66.431  0.00  0.00    +0.171 C 
ATOM     29  C   LIG    1        5.280  31.615  66.046  0.00  0.00    +0.197 C 
ATOM     36  O   LIG    1        4.422  30.735  66.769  0.00  0.00    -0.346 OA
BRANCH  28  30
ATOM     30  O   LIG    1        5.875  33.936  65.717  0.00  0.00    -0.387 OA
ATOM     31  H   LIG    1        6.576  34.220  66.329  0.00  0.00    +0.210 HD
ENDBRANCH  28  30
BRANCH  27  32
ATOM     32  O   LIG    1        6.576  33.115  68.265  0.00  0.00    -0.386 OA
ATOM     33  H   LIG    1        6.974  34.003  68.273  0.00  0.00    +0.210 HD
ENDBRANCH  27  32
BRANCH  26  34
ATOM     34  O   LIG    1        2.984  32.546  68.581  0.00  0.00    -0.384 OA
ATOM     35  H   LIG    1        2.871  33.129  67.812  0.00  0.00    +0.210 HD
ENDBRANCH  26  34
ENDBRANCH  24  25
ENDBRANCH  23  24
ENDBRANCH  22  23
TORSDOF 13
ENDMDL
