MODEL 1
REMARK VINA RESULT:      -7.4      0.000      0.000
REMARK  Name = 9823887
REMARK                            x       y       z     vdW  Elec       q    Type
REMARK                         _______ _______ _______ _____ _____    ______ ____
ROOT
ATOM      1  O   LIG    1       13.023 143.511  28.535  0.00  0.00    -0.341 OA
ATOM      2  C   LIG    1       14.260 143.179  27.909  0.00  0.00    +0.282 C 
ATOM      3  C   LIG    1       14.881 144.417  27.259  0.00  0.00    +0.201 C 
ATOM      4  C   LIG    1       15.012 145.564  28.259  0.00  0.00    +0.179 C 
ATOM      5  C   LIG    1       13.708 145.785  29.024  0.00  0.00    +0.177 C 
ATOM     22  C   LIG    1       13.179 144.463  29.588  0.00  0.00    +0.178 C 
ENDROOT
BRANCH   5   6
ATOM      6  O   LIG    1       13.937 146.696  30.096  0.00  0.00    -0.386 OA
ATOM      7  H   LIG    1       13.509 146.337  30.892  0.00  0.00    +0.210 HD
ENDBRANCH   5   6
BRANCH   4   8
ATOM      8  O   LIG    1       15.323 146.771  27.560  0.00  0.00    -0.386 OA
ATOM      9  H   LIG    1       14.690 146.855  26.828  0.00  0.00    +0.210 HD
ENDBRANCH   4   8
BRANCH   3  10
ATOM     10  O   LIG    1       16.174 144.064  26.769  0.00  0.00    -0.384 OA
ATOM     11  H   LIG    1       16.572 143.435  27.394  0.00  0.00    +0.210 HD
ENDBRANCH   3  10
BRANCH   2  12
ATOM     12  O   LIG    1       14.039 142.209  26.888  0.00  0.00    -0.345 OA
BRANCH  12  13
ATOM     13  C   LIG    1       12.937 141.372  27.200  0.00  0.00    +0.190 C 
BRANCH  13  14
ATOM     14  C   LIG    1       13.430 139.972  27.375  0.00  0.00    +0.001 C 
ATOM     15  C   LIG    1       14.309 139.390  26.544  0.00  0.00    +0.006 C 
BRANCH  15  16
ATOM     16  C   LIG    1       14.833 138.021  26.684  0.00  0.00    -0.025 A 
ATOM     17  C   LIG    1       15.322 137.603  27.912  0.00  0.00    +0.008 A 
ATOM     18  C   LIG    1       15.817 136.307  28.044  0.00  0.00    +0.001 A 
ATOM     19  C   LIG    1       15.820 135.445  26.948  0.00  0.00    +0.000 A 
ATOM     20  C   LIG    1       15.325 135.879  25.719  0.00  0.00    +0.001 A 
ATOM     21  C   LIG    1       14.829 137.176  25.586  0.00  0.00    +0.008 A 
ENDBRANCH  15  16
ENDBRANCH  13  14
ENDBRANCH  12  13
ENDBRANCH   2  12
BRANCH  22  23
ATOM     23  C   LIG    1       11.819 144.638  30.256  0.00  0.00    +0.197 C 
BRANCH  23  24
ATOM     24  O   LIG    1       10.948 145.284  29.345  0.00  0.00    -0.346 OA
BRANCH  24  25
ATOM     25  C   LIG    1       10.202 146.321  29.971  0.00  0.00    +0.281 C 
ATOM     26  C   LIG    1        9.831 147.396  28.938  0.00  0.00    +0.201 C 
ATOM     27  C   LIG    1        8.715 146.931  27.997  0.00  0.00    +0.178 C 
ATOM     28  C   LIG    1        7.555 146.346  28.806  0.00  0.00    +0.171 C 
ATOM     29  C   LIG    1        8.057 145.279  29.770  0.00  0.00    +0.197 C 
ATOM     36  O   LIG    1        9.044 145.818  30.646  0.00  0.00    -0.346 OA
BRANCH  28  30
ATOM     30  O   LIG    1        6.581 145.801  27.927  0.00  0.00    -0.387 OA
ATOM     31  H   LIG    1        7.026 145.593  27.087  0.00  0.00    +0.210 HD
ENDBRANCH  28  30
BRANCH  27  32
ATOM     32  O   LIG    1        9.221 145.934  27.111  0.00  0.00    -0.386 OA
ATOM     33  H   LIG    1        8.580 145.203  27.095  0.00  0.00    +0.210 HD
ENDBRANCH  27  32
BRANCH  26  34
ATOM     34  O   LIG    1        9.400 148.557  29.644  0.00  0.00    -0.384 OA
ATOM     35  H   LIG    1        8.917 149.131  29.027  0.00  0.00    +0.210 HD
ENDBRANCH  26  34
ENDBRANCH  24  25
ENDBRANCH  23  24
ENDBRANCH  22  23
TORSDOF 13
ENDMDL
MODEL 2
REMARK VINA RESULT:      -7.2     11.952     14.296
REMARK  Name = 9823887
REMARK                            x       y       z     vdW  Elec       q    Type
REMARK                         _______ _______ _______ _____ _____    ______ ____
ROOT
ATOM      1  O   LIG    1       16.956 153.684  29.349  0.00  0.00    -0.341 OA
ATOM      2  C   LIG    1       18.341 153.971  29.170  0.00  0.00    +0.282 C 
ATOM      3  C   LIG    1       18.848 153.370  27.859  0.00  0.00    +0.201 C 
ATOM      4  C   LIG    1       17.993 153.816  26.674  0.00  0.00    +0.179 C 
ATOM      5  C   LIG    1       16.504 153.639  26.968  0.00  0.00    +0.177 C 
ATOM     22  C   LIG    1       16.141 154.252  28.323  0.00  0.00    +0.178 C 
ENDROOT
BRANCH   5   6
ATOM      6  O   LIG    1       15.742 154.274  25.944  0.00  0.00    -0.386 OA
ATOM      7  H   LIG    1       14.903 153.790  25.851  0.00  0.00    +0.210 HD
ENDBRANCH   5   6
BRANCH   4   8
ATOM      8  O   LIG    1       18.314 153.023  25.530  0.00  0.00    -0.386 OA
ATOM      9  H   LIG    1       17.623 153.180  24.864  0.00  0.00    +0.210 HD
ENDBRANCH   4   8
BRANCH   3  10
ATOM     10  O   LIG    1       20.195 153.800  27.661  0.00  0.00    -0.384 OA
ATOM     11  H   LIG    1       20.521 153.399  26.838  0.00  0.00    +0.210 HD
ENDBRANCH   3  10
BRANCH   2  12
ATOM     12  O   LIG    1       19.094 153.400  30.238  0.00  0.00    -0.345 OA
BRANCH  12  13
ATOM     13  C   LIG    1       19.307 154.338  31.281  0.00  0.00    +0.190 C 
BRANCH  13  14
ATOM     14  C   LIG    1       20.777 154.570  31.427  0.00  0.00    +0.001 C 
ATOM     15  C   LIG    1       21.312 155.307  32.413  0.00  0.00    +0.006 C 
BRANCH  15  16
ATOM     16  C   LIG    1       22.752 155.550  32.605  0.00  0.00    -0.025 A 
ATOM     17  C   LIG    1       23.468 156.206  31.616  0.00  0.00    +0.008 A 
ATOM     18  C   LIG    1       24.831 156.437  31.799  0.00  0.00    +0.001 A 
ATOM     19  C   LIG    1       25.461 156.007  32.967  0.00  0.00    +0.000 A 
ATOM     20  C   LIG    1       24.728 155.348  33.953  0.00  0.00    +0.001 A 
ATOM     21  C   LIG    1       23.364 155.118  33.771  0.00  0.00    +0.008 A 
ENDBRANCH  15  16
ENDBRANCH  13  14
ENDBRANCH  12  13
ENDBRANCH   2  12
BRANCH  22  23
ATOM     23  C   LIG    1       14.684 153.986  28.691  0.00  0.00    +0.197 C 
BRANCH  23  24
ATOM     24  O   LIG    1       13.915 155.121  28.336  0.00  0.00    -0.346 OA
BRANCH  24  25
ATOM     25  C   LIG    1       14.185 156.229  29.188  0.00  0.00    +0.281 C 
ATOM     26  C   LIG    1       13.890 157.542  28.447  0.00  0.00    +0.201 C 
ATOM     27  C   LIG    1       12.386 157.800  28.307  0.00  0.00    +0.178 C 
ATOM     28  C   LIG    1       11.694 157.621  29.659  0.00  0.00    +0.171 C 
ATOM     29  C   LIG    1       12.051 156.272  30.270  0.00  0.00    +0.197 C 
ATOM     36  O   LIG    1       13.463 156.147  30.422  0.00  0.00    -0.346 OA
BRANCH  28  30
ATOM     30  O   LIG    1       10.287 157.735  29.499  0.00  0.00    -0.387 OA
ATOM     31  H   LIG    1        9.929 156.837  29.393  0.00  0.00    +0.210 HD
ENDBRANCH  28  30
BRANCH  27  32
ATOM     32  O   LIG    1       11.830 156.883  27.367  0.00  0.00    -0.386 OA
ATOM     33  H   LIG    1       11.654 156.051  27.839  0.00  0.00    +0.210 HD
ENDBRANCH  27  32
BRANCH  26  34
ATOM     34  O   LIG    1       14.486 158.608  29.183  0.00  0.00    -0.384 OA
ATOM     35  H   LIG    1       14.722 158.277  30.066  0.00  0.00    +0.210 HD
ENDBRANCH  26  34
ENDBRANCH  24  25
ENDBRANCH  23  24
ENDBRANCH  22  23
TORSDOF 13
ENDMDL
MODEL 3
REMARK VINA RESULT:      -7.2     12.070     15.166
REMARK  Name = 9823887
REMARK                            x       y       z     vdW  Elec       q    Type
REMARK                         _______ _______ _______ _____ _____    ______ ____
ROOT
ATOM      1  O   LIG    1       17.901 153.792  30.300  0.00  0.00    -0.341 OA
ATOM      2  C   LIG    1       18.551 153.022  31.309  0.00  0.00    +0.282 C 
ATOM      3  C   LIG    1       17.969 153.345  32.686  0.00  0.00    +0.201 C 
ATOM      4  C   LIG    1       16.450 153.180  32.702  0.00  0.00    +0.179 C 
ATOM      5  C   LIG    1       15.804 153.888  31.513  0.00  0.00    +0.177 C 
ATOM     22  C   LIG    1       16.504 153.506  30.206  0.00  0.00    +0.178 C 
ENDROOT
BRANCH   5   6
ATOM      6  O   LIG    1       14.429 153.521  31.435  0.00  0.00    -0.386 OA
ATOM      7  H   LIG    1       13.898 154.335  31.475  0.00  0.00    +0.210 HD
ENDBRANCH   5   6
BRANCH   4   8
ATOM      8  O   LIG    1       15.922 153.754  33.899  0.00  0.00    -0.386 OA
ATOM      9  H   LIG    1       15.340 153.091  34.308  0.00  0.00    +0.210 HD
ENDBRANCH   4   8
BRANCH   3  10
ATOM     10  O   LIG    1       18.554 152.456  33.638  0.00  0.00    -0.384 OA
ATOM     11  H   LIG    1       17.893 152.275  34.327  0.00  0.00    +0.210 HD
ENDBRANCH   3  10
BRANCH   2  12
ATOM     12  O   LIG    1       19.942 153.336  31.334  0.00  0.00    -0.345 OA
BRANCH  12  13
ATOM     13  C   LIG    1       20.158 154.707  31.625  0.00  0.00    +0.190 C 
BRANCH  13  14
ATOM     14  C   LIG    1       21.623 154.935  31.815  0.00  0.00    +0.001 C 
ATOM     15  C   LIG    1       22.153 155.407  32.953  0.00  0.00    +0.006 C 
BRANCH  15  16
ATOM     16  C   LIG    1       23.590 155.633  33.192  0.00  0.00    -0.025 A 
ATOM     17  C   LIG    1       24.391 156.066  32.147  0.00  0.00    +0.008 A 
ATOM     18  C   LIG    1       25.751 156.279  32.374  0.00  0.00    +0.001 A 
ATOM     19  C   LIG    1       26.291 156.057  33.640  0.00  0.00    +0.000 A 
ATOM     20  C   LIG    1       25.472 155.621  34.681  0.00  0.00    +0.001 A 
ATOM     21  C   LIG    1       24.112 155.408  34.455  0.00  0.00    +0.008 A 
ENDBRANCH  15  16
ENDBRANCH  13  14
ENDBRANCH  12  13
ENDBRANCH   2  12
BRANCH  22  23
ATOM     23  C   LIG    1       15.952 154.289  29.019  0.00  0.00    +0.197 C 
BRANCH  23  24
ATOM     24  O   LIG    1       16.674 153.917  27.859  0.00  0.00    -0.346 OA
BRANCH  24  25
ATOM     25  C   LIG    1       16.566 154.897  26.833  0.00  0.00    +0.281 C 
ATOM     26  C   LIG    1       17.327 156.168  27.242  0.00  0.00    +0.201 C 
ATOM     27  C   LIG    1       18.845 155.988  27.143  0.00  0.00    +0.178 C 
ATOM     28  C   LIG    1       19.218 155.389  25.786  0.00  0.00    +0.171 C 
ATOM     29  C   LIG    1       18.411 154.125  25.518  0.00  0.00    +0.197 C 
ATOM     36  O   LIG    1       17.013 154.401  25.566  0.00  0.00    -0.346 OA
BRANCH  28  30
ATOM     30  O   LIG    1       20.609 155.106  25.749  0.00  0.00    -0.387 OA
ATOM     31  H   LIG    1       20.995 155.418  26.586  0.00  0.00    +0.210 HD
ENDBRANCH  28  30
BRANCH  27  32
ATOM     32  O   LIG    1       19.291 155.117  28.181  0.00  0.00    -0.386 OA
ATOM     33  H   LIG    1       18.675 155.212  28.928  0.00  0.00    +0.210 HD
ENDBRANCH  27  32
BRANCH  26  34
ATOM     34  O   LIG    1       16.919 157.224  26.375  0.00  0.00    -0.384 OA
ATOM     35  H   LIG    1       16.965 156.905  25.458  0.00  0.00    +0.210 HD
ENDBRANCH  26  34
ENDBRANCH  24  25
ENDBRANCH  23  24
ENDBRANCH  22  23
TORSDOF 13
ENDMDL
MODEL 4
REMARK VINA RESULT:      -7.1      2.245      3.724
REMARK  Name = 9823887
REMARK                            x       y       z     vdW  Elec       q    Type
REMARK                         _______ _______ _______ _____ _____    ______ ____
ROOT
ATOM      1  O   LIG    1       12.887 143.692  28.543  0.00  0.00    -0.341 OA
ATOM      2  C   LIG    1       14.139 143.257  28.019  0.00  0.00    +0.282 C 
ATOM      3  C   LIG    1       14.816 144.386  27.242  0.00  0.00    +0.201 C 
ATOM      4  C   LIG    1       14.937 145.651  28.091  0.00  0.00    +0.179 C 
ATOM      5  C   LIG    1       13.610 145.995  28.765  0.00  0.00    +0.177 C 
ATOM     22  C   LIG    1       13.025 144.769  29.471  0.00  0.00    +0.178 C 
ENDROOT
BRANCH   5   6
ATOM      6  O   LIG    1       13.819 147.033  29.719  0.00  0.00    -0.386 OA
ATOM      7  H   LIG    1       14.076 147.837  29.235  0.00  0.00    +0.210 HD
ENDBRANCH   5   6
BRANCH   4   8
ATOM      8  O   LIG    1       15.307 146.751  27.257  0.00  0.00    -0.386 OA
ATOM      9  H   LIG    1       16.263 146.887  27.363  0.00  0.00    +0.210 HD
ENDBRANCH   4   8
BRANCH   3  10
ATOM     10  O   LIG    1       16.119 143.947  26.857  0.00  0.00    -0.384 OA
ATOM     11  H   LIG    1       16.751 144.256  27.527  0.00  0.00    +0.210 HD
ENDBRANCH   3  10
BRANCH   2  12
ATOM     12  O   LIG    1       13.934 142.167  27.122  0.00  0.00    -0.345 OA
BRANCH  12  13
ATOM     13  C   LIG    1       12.854 141.349  27.542  0.00  0.00    +0.190 C 
BRANCH  13  14
ATOM     14  C   LIG    1       13.290 139.919  27.508  0.00  0.00    +0.001 C 
ATOM     15  C   LIG    1       14.434 139.511  26.938  0.00  0.00    +0.006 C 
BRANCH  15  16
ATOM     16  C   LIG    1       14.911 138.118  26.893  0.00  0.00    -0.025 A 
ATOM     17  C   LIG    1       15.386 137.525  28.052  0.00  0.00    +0.008 A 
ATOM     18  C   LIG    1       15.836 136.206  28.009  0.00  0.00    +0.001 A 
ATOM     19  C   LIG    1       15.808 135.497  26.809  0.00  0.00    +0.000 A 
ATOM     20  C   LIG    1       15.328 136.107  25.650  0.00  0.00    +0.001 A 
ATOM     21  C   LIG    1       14.876 137.426  25.693  0.00  0.00    +0.008 A 
ENDBRANCH  15  16
ENDBRANCH  13  14
ENDBRANCH  12  13
ENDBRANCH   2  12
BRANCH  22  23
ATOM     23  C   LIG    1       11.644 145.056  30.053  0.00  0.00    +0.197 C 
BRANCH  23  24
ATOM     24  O   LIG    1       11.801 145.851  31.215  0.00  0.00    -0.346 OA
BRANCH  24  25
ATOM     25  C   LIG    1       11.843 145.057  32.395  0.00  0.00    +0.281 C 
ATOM     26  C   LIG    1       13.288 144.960  32.910  0.00  0.00    +0.201 C 
ATOM     27  C   LIG    1       13.754 146.264  33.567  0.00  0.00    +0.178 C 
ATOM     28  C   LIG    1       12.711 146.747  34.576  0.00  0.00    +0.171 C 
ATOM     29  C   LIG    1       11.333 146.820  33.932  0.00  0.00    +0.197 C 
ATOM     36  O   LIG    1       10.956 145.550  33.406  0.00  0.00    -0.346 OA
BRANCH  28  30
ATOM     30  O   LIG    1       13.087 148.018  35.088  0.00  0.00    -0.387 OA
ATOM     31  H   LIG    1       12.503 148.216  35.840  0.00  0.00    +0.210 HD
ENDBRANCH  28  30
BRANCH  27  32
ATOM     32  O   LIG    1       13.939 147.264  32.566  0.00  0.00    -0.386 OA
ATOM     33  H   LIG    1       14.876 147.522  32.581  0.00  0.00    +0.210 HD
ENDBRANCH  27  32
BRANCH  26  34
ATOM     34  O   LIG    1       13.346 143.903  33.864  0.00  0.00    -0.384 OA
ATOM     35  H   LIG    1       12.554 143.350  33.760  0.00  0.00    +0.210 HD
ENDBRANCH  26  34
ENDBRANCH  24  25
ENDBRANCH  23  24
ENDBRANCH  22  23
TORSDOF 13
ENDMDL
MODEL 5
REMARK VINA RESULT:      -6.9     23.350     25.497
REMARK  Name = 9823887
REMARK                            x       y       z     vdW  Elec       q    Type
REMARK                         _______ _______ _______ _____ _____    ______ ____
ROOT
ATOM      1  O   LIG    1       19.427 164.496  20.722  0.00  0.00    -0.341 OA
ATOM      2  C   LIG    1       19.550 164.034  19.379  0.00  0.00    +0.282 C 
ATOM      3  C   LIG    1       19.561 165.213  18.406  0.00  0.00    +0.201 C 
ATOM      4  C   LIG    1       20.634 166.234  18.781  0.00  0.00    +0.179 C 
ATOM      5  C   LIG    1       20.570 166.584  20.267  0.00  0.00    +0.177 C 
ATOM     22  C   LIG    1       20.526 165.316  21.122  0.00  0.00    +0.178 C 
ENDROOT
BRANCH   5   6
ATOM      6  O   LIG    1       21.718 167.352  20.621  0.00  0.00    -0.386 OA
ATOM      7  H   LIG    1       22.162 166.903  21.361  0.00  0.00    +0.210 HD
ENDBRANCH   5   6
BRANCH   4   8
ATOM      8  O   LIG    1       20.429 167.435  18.035  0.00  0.00    -0.386 OA
ATOM      9  H   LIG    1       20.448 167.199  17.092  0.00  0.00    +0.210 HD
ENDBRANCH   4   8
BRANCH   3  10
ATOM     10  O   LIG    1       19.822 164.710  17.096  0.00  0.00    -0.384 OA
ATOM     11  H   LIG    1       19.472 165.348  16.452  0.00  0.00    +0.210 HD
ENDBRANCH   3  10
BRANCH   2  12
ATOM     12  O   LIG    1       18.438 163.203  19.051  0.00  0.00    -0.345 OA
BRANCH  12  13
ATOM     13  C   LIG    1       17.209 163.891  19.223  0.00  0.00    +0.190 C 
BRANCH  13  14
ATOM     14  C   LIG    1       16.241 163.415  18.189  0.00  0.00    +0.001 C 
ATOM     15  C   LIG    1       16.007 164.071  17.042  0.00  0.00    +0.006 C 
BRANCH  15  16
ATOM     16  C   LIG    1       15.074 163.634  15.988  0.00  0.00    -0.025 A 
ATOM     17  C   LIG    1       15.529 163.516  14.684  0.00  0.00    +0.008 A 
ATOM     18  C   LIG    1       14.646 163.102  13.688  0.00  0.00    +0.001 A 
ATOM     19  C   LIG    1       13.320 162.811  14.007  0.00  0.00    +0.000 A 
ATOM     20  C   LIG    1       12.876 162.933  15.323  0.00  0.00    +0.001 A 
ATOM     21  C   LIG    1       13.760 163.348  16.321  0.00  0.00    +0.008 A 
ENDBRANCH  15  16
ENDBRANCH  13  14
ENDBRANCH  12  13
ENDBRANCH   2  12
BRANCH  22  23
ATOM     23  C   LIG    1       20.345 165.639  22.603  0.00  0.00    +0.197 C 
BRANCH  23  24
ATOM     24  O   LIG    1       21.537 166.233  23.083  0.00  0.00    -0.346 OA
BRANCH  24  25
ATOM     25  C   LIG    1       22.450 165.259  23.577  0.00  0.00    +0.281 C 
ATOM     26  C   LIG    1       23.768 165.332  22.790  0.00  0.00    +0.201 C 
ATOM     27  C   LIG    1       24.603 166.557  23.177  0.00  0.00    +0.178 C 
ATOM     28  C   LIG    1       24.722 166.654  24.698  0.00  0.00    +0.171 C 
ATOM     29  C   LIG    1       23.347 166.594  25.350  0.00  0.00    +0.197 C 
ATOM     36  O   LIG    1       22.670 165.393  24.985  0.00  0.00    -0.346 OA
BRANCH  28  30
ATOM     30  O   LIG    1       25.388 167.857  25.055  0.00  0.00    -0.387 OA
ATOM     31  H   LIG    1       25.968 167.660  25.810  0.00  0.00    +0.210 HD
ENDBRANCH  28  30
BRANCH  27  32
ATOM     32  O   LIG    1       23.979 167.738  22.677  0.00  0.00    -0.386 OA
ATOM     33  H   LIG    1       23.582 167.518  21.816  0.00  0.00    +0.210 HD
ENDBRANCH  27  32
BRANCH  26  34
ATOM     34  O   LIG    1       24.512 164.147  23.065  0.00  0.00    -0.384 OA
ATOM     35  H   LIG    1       24.484 163.576  22.279  0.00  0.00    +0.210 HD
ENDBRANCH  26  34
ENDBRANCH  24  25
ENDBRANCH  23  24
ENDBRANCH  22  23
TORSDOF 13
ENDMDL
MODEL 6
REMARK VINA RESULT:      -6.9     24.723     27.985
REMARK  Name = 9823887
REMARK                            x       y       z     vdW  Elec       q    Type
REMARK                         _______ _______ _______ _____ _____    ______ ____
ROOT
ATOM      1  O   LIG    1       15.067 164.625  13.570  0.00  0.00    -0.341 OA
ATOM      2  C   LIG    1       14.541 164.966  12.289  0.00  0.00    +0.282 C 
ATOM      3  C   LIG    1       13.986 163.724  11.590  0.00  0.00    +0.201 C 
ATOM      4  C   LIG    1       12.973 162.995  12.471  0.00  0.00    +0.179 C 
ATOM      5  C   LIG    1       13.515 162.790  13.885  0.00  0.00    +0.177 C 
ATOM     22  C   LIG    1       14.072 164.099  14.449  0.00  0.00    +0.178 C 
ENDROOT
BRANCH   5   6
ATOM      6  O   LIG    1       12.467 162.320  14.729  0.00  0.00    -0.386 OA
ATOM      7  H   LIG    1       12.825 161.605  15.283  0.00  0.00    +0.210 HD
ENDBRANCH   5   6
BRANCH   4   8
ATOM      8  O   LIG    1       12.696 161.710  11.914  0.00  0.00    -0.386 OA
ATOM      9  H   LIG    1       13.374 161.532  11.239  0.00  0.00    +0.210 HD
ENDBRANCH   4   8
BRANCH   3  10
ATOM     10  O   LIG    1       13.352 164.139  10.380  0.00  0.00    -0.384 OA
ATOM     11  H   LIG    1       13.932 163.899   9.639  0.00  0.00    +0.210 HD
ENDBRANCH   3  10
BRANCH   2  12
ATOM     12  O   LIG    1       15.576 165.507  11.471  0.00  0.00    -0.345 OA
BRANCH  12  13
ATOM     13  C   LIG    1       15.354 166.882  11.198  0.00  0.00    +0.190 C 
BRANCH  13  14
ATOM     14  C   LIG    1       15.325 167.080   9.717  0.00  0.00    +0.001 C 
ATOM     15  C   LIG    1       16.412 167.383   8.992  0.00  0.00    +0.006 C 
BRANCH  15  16
ATOM     16  C   LIG    1       16.434 167.573   7.531  0.00  0.00    -0.025 A 
ATOM     17  C   LIG    1       15.966 166.561   6.708  0.00  0.00    +0.008 A 
ATOM     18  C   LIG    1       15.986 166.742   5.325  0.00  0.00    +0.001 A 
ATOM     19  C   LIG    1       16.475 167.930   4.783  0.00  0.00    +0.000 A 
ATOM     20  C   LIG    1       16.943 168.939   5.624  0.00  0.00    +0.001 A 
ATOM     21  C   LIG    1       16.923 168.759   7.007  0.00  0.00    +0.008 A 
ENDBRANCH  15  16
ENDBRANCH  13  14
ENDBRANCH  12  13
ENDBRANCH   2  12
BRANCH  22  23
ATOM     23  C   LIG    1       14.724 163.895  15.814  0.00  0.00    +0.197 C 
BRANCH  23  24
ATOM     24  O   LIG    1       16.024 163.368  15.617  0.00  0.00    -0.346 OA
BRANCH  24  25
ATOM     25  C   LIG    1       17.027 164.365  15.780  0.00  0.00    +0.281 C 
ATOM     26  C   LIG    1       17.102 164.797  17.252  0.00  0.00    +0.201 C 
ATOM     27  C   LIG    1       17.775 163.737  18.130  0.00  0.00    +0.178 C 
ATOM     28  C   LIG    1       19.090 163.283  17.495  0.00  0.00    +0.171 C 
ATOM     29  C   LIG    1       18.869 162.860  16.048  0.00  0.00    +0.197 C 
ATOM     36  O   LIG    1       18.301 163.928  15.293  0.00  0.00    -0.346 OA
BRANCH  28  30
ATOM     30  O   LIG    1       19.645 162.212  18.245  0.00  0.00    -0.387 OA
ATOM     31  H   LIG    1       20.569 162.440  18.443  0.00  0.00    +0.210 HD
ENDBRANCH  28  30
BRANCH  27  32
ATOM     32  O   LIG    1       16.907 162.613  18.271  0.00  0.00    -0.386 OA
ATOM     33  H   LIG    1       17.011 162.062  17.476  0.00  0.00    +0.210 HD
ENDBRANCH  27  32
BRANCH  26  34
ATOM     34  O   LIG    1       17.850 166.009  17.319  0.00  0.00    -0.384 OA
ATOM     35  H   LIG    1       17.349 166.651  17.848  0.00  0.00    +0.210 HD
ENDBRANCH  26  34
ENDBRANCH  24  25
ENDBRANCH  23  24
ENDBRANCH  22  23
TORSDOF 13
ENDMDL
MODEL 7
REMARK VINA RESULT:      -6.9      3.040      4.031
REMARK  Name = 9823887
REMARK                            x       y       z     vdW  Elec       q    Type
REMARK                         _______ _______ _______ _____ _____    ______ ____
ROOT
ATOM      1  O   LIG    1       12.757 142.757  28.022  0.00  0.00    -0.341 OA
ATOM      2  C   LIG    1       14.085 142.654  27.512  0.00  0.00    +0.282 C 
ATOM      3  C   LIG    1       14.608 144.030  27.097  0.00  0.00    +0.201 C 
ATOM      4  C   LIG    1       14.489 145.038  28.240  0.00  0.00    +0.179 C 
ATOM      5  C   LIG    1       13.096 145.004  28.866  0.00  0.00    +0.177 C 
ATOM     22  C   LIG    1       12.682 143.568  29.196  0.00  0.00    +0.178 C 
ENDROOT
BRANCH   5   6
ATOM      6  O   LIG    1       13.096 145.781  30.061  0.00  0.00    -0.386 OA
ATOM      7  H   LIG    1       13.030 145.170  30.815  0.00  0.00    +0.210 HD
ENDBRANCH   5   6
BRANCH   4   8
ATOM      8  O   LIG    1       14.716 146.355  27.737  0.00  0.00    -0.386 OA
ATOM      9  H   LIG    1       13.896 146.647  27.304  0.00  0.00    +0.210 HD
ENDBRANCH   4   8
BRANCH   3  10
ATOM     10  O   LIG    1       15.979 143.893  26.725  0.00  0.00    -0.384 OA
ATOM     11  H   LIG    1       16.065 144.151  25.792  0.00  0.00    +0.210 HD
ENDBRANCH   3  10
BRANCH   2  12
ATOM     12  O   LIG    1       14.094 141.813  26.360  0.00  0.00    -0.345 OA
BRANCH  12  13
ATOM     13  C   LIG    1       12.866 141.119  26.216  0.00  0.00    +0.190 C 
BRANCH  13  14
ATOM     14  C   LIG    1       12.511 141.061  24.765  0.00  0.00    +0.001 C 
ATOM     15  C   LIG    1       11.366 140.533  24.306  0.00  0.00    +0.006 C 
BRANCH  15  16
ATOM     16  C   LIG    1       10.969 140.468  22.889  0.00  0.00    -0.025 A 
ATOM     17  C   LIG    1       11.151 139.288  22.186  0.00  0.00    +0.008 A 
ATOM     18  C   LIG    1       10.774 139.227  20.845  0.00  0.00    +0.001 A 
ATOM     19  C   LIG    1       10.221 140.346  20.224  0.00  0.00    +0.000 A 
ATOM     20  C   LIG    1       10.043 141.527  20.944  0.00  0.00    +0.001 A 
ATOM     21  C   LIG    1       10.420 141.588  22.286  0.00  0.00    +0.008 A 
ENDBRANCH  15  16
ENDBRANCH  13  14
ENDBRANCH  12  13
ENDBRANCH   2  12
BRANCH  22  23
ATOM     23  C   LIG    1       11.249 143.497  29.714  0.00  0.00    +0.197 C 
BRANCH  23  24
ATOM     24  O   LIG    1       10.514 144.570  29.154  0.00  0.00    -0.346 OA
BRANCH  24  25
ATOM     25  C   LIG    1        9.389 144.915  29.956  0.00  0.00    +0.281 C 
ATOM     26  C   LIG    1        9.653 146.242  30.684  0.00  0.00    +0.201 C 
ATOM     27  C   LIG    1        9.561 147.445  29.740  0.00  0.00    +0.178 C 
ATOM     28  C   LIG    1        8.273 147.373  28.918  0.00  0.00    +0.171 C 
ATOM     29  C   LIG    1        8.150 146.019  28.231  0.00  0.00    +0.197 C 
ATOM     36  O   LIG    1        8.180 144.965  29.190  0.00  0.00    -0.346 OA
BRANCH  28  30
ATOM     30  O   LIG    1        8.255 148.419  27.957  0.00  0.00    -0.387 OA
ATOM     31  H   LIG    1        7.437 148.929  28.093  0.00  0.00    +0.210 HD
ENDBRANCH  28  30
BRANCH  27  32
ATOM     32  O   LIG    1       10.683 147.447  28.858  0.00  0.00    -0.386 OA
ATOM     33  H   LIG    1       10.344 147.557  27.953  0.00  0.00    +0.210 HD
ENDBRANCH  27  32
BRANCH  26  34
ATOM     34  O   LIG    1        8.681 146.378  31.718  0.00  0.00    -0.384 OA
ATOM     35  H   LIG    1        8.356 145.493  31.953  0.00  0.00    +0.210 HD
ENDBRANCH  26  34
ENDBRANCH  24  25
ENDBRANCH  23  24
ENDBRANCH  22  23
TORSDOF 13
ENDMDL
MODEL 8
REMARK VINA RESULT:      -6.8     20.188     22.175
REMARK  Name = 9823887
REMARK                            x       y       z     vdW  Elec       q    Type
REMARK                         _______ _______ _______ _____ _____    ______ ____
ROOT
ATOM      1  O   LIG    1       23.122 140.595   9.402  0.00  0.00    -0.341 OA
ATOM      2  C   LIG    1       24.054 141.250  10.259  0.00  0.00    +0.282 C 
ATOM      3  C   LIG    1       24.925 142.221   9.460  0.00  0.00    +0.201 C 
ATOM      4  C   LIG    1       24.072 143.199   8.654  0.00  0.00    +0.179 C 
ATOM      5  C   LIG    1       22.982 142.469   7.871  0.00  0.00    +0.177 C 
ATOM     22  C   LIG    1       22.214 141.505   8.780  0.00  0.00    +0.178 C 
ENDROOT
BRANCH   5   6
ATOM      6  O   LIG    1       22.075 143.423   7.323  0.00  0.00    -0.386 OA
ATOM      7  H   LIG    1       21.341 142.936   6.911  0.00  0.00    +0.210 HD
ENDBRANCH   5   6
BRANCH   4   8
ATOM      8  O   LIG    1       24.900 143.891   7.717  0.00  0.00    -0.386 OA
ATOM      9  H   LIG    1       24.467 143.833   6.848  0.00  0.00    +0.210 HD
ENDBRANCH   4   8
BRANCH   3  10
ATOM     10  O   LIG    1       25.741 142.947  10.378  0.00  0.00    -0.384 OA
ATOM     11  H   LIG    1       26.294 143.563   9.868  0.00  0.00    +0.210 HD
ENDBRANCH   3  10
BRANCH   2  12
ATOM     12  O   LIG    1       24.911 140.286  10.867  0.00  0.00    -0.345 OA
BRANCH  12  13
ATOM     13  C   LIG    1       24.711 140.228  12.270  0.00  0.00    +0.190 C 
BRANCH  13  14
ATOM     14  C   LIG    1       26.022 140.446  12.953  0.00  0.00    +0.001 C 
ATOM     15  C   LIG    1       27.192 140.510  12.299  0.00  0.00    +0.006 C 
BRANCH  15  16
ATOM     16  C   LIG    1       28.505 140.737  12.928  0.00  0.00    -0.025 A 
ATOM     17  C   LIG    1       28.936 142.036  13.149  0.00  0.00    +0.008 A 
ATOM     18  C   LIG    1       30.179 142.250  13.744  0.00  0.00    +0.001 A 
ATOM     19  C   LIG    1       30.975 141.165  14.109  0.00  0.00    +0.000 A 
ATOM     20  C   LIG    1       30.529 139.864  13.880  0.00  0.00    +0.001 A 
ATOM     21  C   LIG    1       29.285 139.649  13.285  0.00  0.00    +0.008 A 
ENDBRANCH  15  16
ENDBRANCH  13  14
ENDBRANCH  12  13
ENDBRANCH   2  12
BRANCH  22  23
ATOM     23  C   LIG    1       21.197 140.680   7.997  0.00  0.00    +0.197 C 
BRANCH  23  24
ATOM     24  O   LIG    1       20.489 139.857   8.906  0.00  0.00    -0.346 OA
BRANCH  24  25
ATOM     25  C   LIG    1       20.285 138.548   8.385  0.00  0.00    +0.281 C 
ATOM     26  C   LIG    1       21.514 137.672   8.673  0.00  0.00    +0.201 C 
ATOM     27  C   LIG    1       21.591 137.256  10.146  0.00  0.00    +0.178 C 
ATOM     28  C   LIG    1       20.244 136.698  10.607  0.00  0.00    +0.171 C 
ATOM     29  C   LIG    1       19.120 137.673  10.284  0.00  0.00    +0.197 C 
ATOM     36  O   LIG    1       19.083 137.952   8.886  0.00  0.00    -0.346 OA
BRANCH  28  30
ATOM     30  O   LIG    1       20.284 136.433  12.003  0.00  0.00    -0.387 OA
ATOM     31  H   LIG    1       20.634 137.226  12.443  0.00  0.00    +0.210 HD
ENDBRANCH  28  30
BRANCH  27  32
ATOM     32  O   LIG    1       21.931 138.388  10.945  0.00  0.00    -0.386 OA
ATOM     33  H   LIG    1       22.443 138.998  10.386  0.00  0.00    +0.210 HD
ENDBRANCH  27  32
BRANCH  26  34
ATOM     34  O   LIG    1       21.426 136.507   7.857  0.00  0.00    -0.384 OA
ATOM     35  H   LIG    1       20.516 136.168   7.902  0.00  0.00    +0.210 HD
ENDBRANCH  26  34
ENDBRANCH  24  25
ENDBRANCH  23  24
ENDBRANCH  22  23
TORSDOF 13
ENDMDL
MODEL 9
REMARK VINA RESULT:      -6.7     21.673     23.793
REMARK  Name = 9823887
REMARK                            x       y       z     vdW  Elec       q    Type
REMARK                         _______ _______ _______ _____ _____    ______ ____
ROOT
ATOM      1  O   LIG    1       23.311 141.038   8.431  0.00  0.00    -0.341 OA
ATOM      2  C   LIG    1       24.021 141.523   9.568  0.00  0.00    +0.282 C 
ATOM      3  C   LIG    1       24.844 142.758   9.199  0.00  0.00    +0.201 C 
ATOM      4  C   LIG    1       23.975 143.830   8.541  0.00  0.00    +0.179 C 
ATOM      5  C   LIG    1       23.110 143.237   7.430  0.00  0.00    +0.177 C 
ATOM     22  C   LIG    1       22.374 141.988   7.923  0.00  0.00    +0.178 C 
ENDROOT
BRANCH   5   6
ATOM      6  O   LIG    1       22.158 144.208   7.003  0.00  0.00    -0.386 OA
ATOM      7  H   LIG    1       22.286 144.354   6.050  0.00  0.00    +0.210 HD
ENDBRANCH   5   6
BRANCH   4   8
ATOM      8  O   LIG    1       24.813 144.832   7.962  0.00  0.00    -0.386 OA
ATOM      9  H   LIG    1       24.823 144.683   7.001  0.00  0.00    +0.210 HD
ENDBRANCH   4   8
BRANCH   3  10
ATOM     10  O   LIG    1       25.422 143.283  10.394  0.00  0.00    -0.384 OA
ATOM     11  H   LIG    1       25.314 142.622  11.097  0.00  0.00    +0.210 HD
ENDBRANCH   3  10
BRANCH   2  12
ATOM     12  O   LIG    1       24.918 140.521  10.041  0.00  0.00    -0.345 OA
BRANCH  12  13
ATOM     13  C   LIG    1       24.645 140.176  11.389  0.00  0.00    +0.190 C 
BRANCH  13  14
ATOM     14  C   LIG    1       25.851 140.480  12.218  0.00  0.00    +0.001 C 
ATOM     15  C   LIG    1       27.102 140.176  11.839  0.00  0.00    +0.006 C 
BRANCH  15  16
ATOM     16  C   LIG    1       28.320 140.469  12.615  0.00  0.00    -0.025 A 
ATOM     17  C   LIG    1       29.137 139.424  13.016  0.00  0.00    +0.008 A 
ATOM     18  C   LIG    1       30.289 139.702  13.750  0.00  0.00    +0.001 A 
ATOM     19  C   LIG    1       30.610 141.020  14.075  0.00  0.00    +0.000 A 
ATOM     20  C   LIG    1       29.778 142.061  13.665  0.00  0.00    +0.001 A 
ATOM     21  C   LIG    1       28.624 141.783  12.930  0.00  0.00    +0.008 A 
ENDBRANCH  15  16
ENDBRANCH  13  14
ENDBRANCH  12  13
ENDBRANCH   2  12
BRANCH  22  23
ATOM     23  C   LIG    1       21.595 141.311   6.799  0.00  0.00    +0.197 C 
BRANCH  23  24
ATOM     24  O   LIG    1       22.042 141.836   5.562  0.00  0.00    -0.346 OA
BRANCH  24  25
ATOM     25  C   LIG    1       21.444 141.165   4.457  0.00  0.00    +0.281 C 
ATOM     26  C   LIG    1       19.926 141.401   4.461  0.00  0.00    +0.201 C 
ATOM     27  C   LIG    1       19.562 142.820   4.012  0.00  0.00    +0.178 C 
ATOM     28  C   LIG    1       20.294 143.166   2.714  0.00  0.00    +0.171 C 
ATOM     29  C   LIG    1       21.789 142.911   2.856  0.00  0.00    +0.197 C 
ATOM     36  O   LIG    1       22.035 141.552   3.211  0.00  0.00    -0.346 OA
BRANCH  28  30
ATOM     30  O   LIG    1       20.053 144.524   2.372  0.00  0.00    -0.387 OA
ATOM     31  H   LIG    1       19.094 144.632   2.253  0.00  0.00    +0.210 HD
ENDBRANCH  28  30
BRANCH  27  32
ATOM     32  O   LIG    1       19.936 143.752   5.026  0.00  0.00    -0.386 OA
ATOM     33  H   LIG    1       20.488 143.277   5.671  0.00  0.00    +0.210 HD
ENDBRANCH  27  32
BRANCH  26  34
ATOM     34  O   LIG    1       19.331 140.458   3.572  0.00  0.00    -0.384 OA
ATOM     35  H   LIG    1       18.497 140.150   3.964  0.00  0.00    +0.210 HD
ENDBRANCH  26  34
ENDBRANCH  24  25
ENDBRANCH  23  24
ENDBRANCH  22  23
TORSDOF 13
ENDMDL
