MODEL 1
REMARK VINA RESULT:      -8.4      0.000      0.000
REMARK  Name = 5280805
REMARK                            x       y       z     vdW  Elec       q    Type
REMARK                         _______ _______ _______ _____ _____    ______ ____
ROOT
ATOM      1  O   LIG    1       -2.207  32.417  62.343  0.00  0.00    -0.331 OA
ATOM      2  C   LIG    1       -0.931  33.007  62.107  0.00  0.00    +0.340 C 
ATOM      3  C   LIG    1       -1.035  34.107  61.051  0.00  0.00    +0.214 C 
ATOM      4  C   LIG    1       -2.102  35.136  61.424  0.00  0.00    +0.180 C 
ATOM      5  C   LIG    1       -3.411  34.456  61.825  0.00  0.00    +0.177 C 
ATOM     38  C   LIG    1       -3.157  33.354  62.856  0.00  0.00    +0.179 C 
ENDROOT
BRANCH   5   6
ATOM      6  O   LIG    1       -4.295  35.426  62.382  0.00  0.00    -0.386 OA
ATOM      7  H   LIG    1       -4.341  35.276  63.341  0.00  0.00    +0.210 HD
ENDBRANCH   5   6
BRANCH   4   8
ATOM      8  O   LIG    1       -2.368  35.975  60.298  0.00  0.00    -0.386 OA
ATOM      9  H   LIG    1       -2.919  35.466  59.679  0.00  0.00    +0.210 HD
ENDBRANCH   4   8
BRANCH   3  10
ATOM     10  O   LIG    1        0.233  34.754  60.951  0.00  0.00    -0.383 OA
ATOM     11  H   LIG    1        0.086  35.656  60.620  0.00  0.00    +0.210 HD
ENDBRANCH   3  10
BRANCH   2  12
ATOM     12  O   LIG    1       -0.025  32.016  61.622  0.00  0.00    -0.453 OA
BRANCH  12  13
ATOM     13  C   LIG    1        0.715  31.463  62.643  0.00  0.00    +0.214 A 
ATOM     14  C   LIG    1        2.019  32.085  62.976  0.00  0.00    +0.238 A 
ATOM     15  C   LIG    1        2.768  31.477  64.086  0.00  0.00    +0.109 A 
ATOM     16  C   LIG    1        4.010  31.989  64.475  0.00  0.00    +0.135 A 
ATOM     17  C   LIG    1        4.697  31.394  65.534  0.00  0.00    +0.091 A 
ATOM     18  C   LIG    1        4.149  30.297  66.199  0.00  0.00    +0.124 A 
ATOM     19  C   LIG    1        2.910  29.789  65.808  0.00  0.00    +0.092 A 
ATOM     24  C   LIG    1        2.220  30.382  64.749  0.00  0.00    +0.147 A 
ATOM     25  O   LIG    1        1.007  29.839  64.412  0.00  0.00    -0.451 OA
ATOM     26  O   LIG    1        2.448  33.052  62.361  0.00  0.00    -0.283 OA
ATOM     27  C   LIG    1        0.302  30.399  63.358  0.00  0.00    +0.181 A 
BRANCH  27  28
ATOM     28  C   LIG    1       -0.981  29.724  63.101  0.00  0.00    +0.025 A 
ATOM     29  C   LIG    1       -1.213  29.109  61.870  0.00  0.00    +0.015 A 
ATOM     30  C   LIG    1       -2.428  28.469  61.627  0.00  0.00    +0.050 A 
ATOM     31  C   LIG    1       -3.413  28.445  62.615  0.00  0.00    +0.158 A 
ATOM     32  C   LIG    1       -3.183  29.058  63.845  0.00  0.00    +0.159 A 
ATOM     37  C   LIG    1       -1.967  29.698  64.088  0.00  0.00    +0.060 A 
BRANCH  32  33
ATOM     33  O   LIG    1       -4.136  29.040  64.818  0.00  0.00    -0.503 OA
ATOM     34  H   LIG    1       -3.789  28.591  65.606  0.00  0.00    +0.292 HD
ENDBRANCH  32  33
BRANCH  31  35
ATOM     35  O   LIG    1       -4.597  27.818  62.365  0.00  0.00    -0.503 OA
ATOM     36  H   LIG    1       -4.444  26.869  62.237  0.00  0.00    +0.292 HD
ENDBRANCH  31  35
ENDBRANCH  27  28
BRANCH  18  20
ATOM     20  O   LIG    1        4.824  29.720  67.231  0.00  0.00    -0.507 OA
ATOM     21  H   LIG    1        5.190  30.420  67.798  0.00  0.00    +0.292 HD
ENDBRANCH  18  20
BRANCH  16  22
ATOM     22  O   LIG    1        4.589  33.058  63.862  0.00  0.00    -0.506 OA
ATOM     23  H   LIG    1        4.706  32.865  62.915  0.00  0.00    +0.292 HD
ENDBRANCH  16  22
ENDBRANCH  12  13
ENDBRANCH   2  12
BRANCH  38  39
ATOM     39  C   LIG    1       -4.431  32.583  63.186  0.00  0.00    +0.197 C 
BRANCH  39  40
ATOM     40  O   LIG    1       -5.163  32.367  61.988  0.00  0.00    -0.346 OA
BRANCH  40  41
ATOM     41  C   LIG    1       -5.661  31.035  61.915  0.00  0.00    +0.282 C 
ATOM     42  C   LIG    1       -6.611  30.774  63.082  0.00  0.00    +0.201 C 
ATOM     43  C   LIG    1       -7.915  31.555  62.910  0.00  0.00    +0.179 C 
ATOM     44  C   LIG    1       -8.530  31.294  61.534  0.00  0.00    +0.174 C 
ATOM     45  C   LIG    1       -7.487  31.536  60.435  0.00  0.00    +0.149 C 
ATOM     46  C   LIG    1       -8.011  31.149  59.054  0.00  0.00    +0.041 C 
ATOM     53  O   LIG    1       -6.306  30.761  60.667  0.00  0.00    -0.343 OA
BRANCH  44  47
ATOM     47  O   LIG    1       -9.636  32.179  61.369  0.00  0.00    -0.387 OA
ATOM     48  H   LIG    1      -10.139  32.186  62.200  0.00  0.00    +0.210 HD
ENDBRANCH  44  47
BRANCH  43  49
ATOM     49  O   LIG    1       -8.846  31.175  63.920  0.00  0.00    -0.386 OA
ATOM     50  H   LIG    1       -9.277  30.352  63.632  0.00  0.00    +0.210 HD
ENDBRANCH  43  49
BRANCH  42  51
ATOM     51  O   LIG    1       -6.883  29.372  63.117  0.00  0.00    -0.384 OA
ATOM     52  H   LIG    1       -6.131  28.924  63.540  0.00  0.00    +0.210 HD
ENDBRANCH  42  51
ENDBRANCH  40  41
ENDBRANCH  39  40
ENDBRANCH  38  39
TORSDOF 16
ENDMDL
MODEL 2
REMARK VINA RESULT:      -8.3      1.698      8.887
REMARK  Name = 5280805
REMARK                            x       y       z     vdW  Elec       q    Type
REMARK                         _______ _______ _______ _____ _____    ______ ____
ROOT
ATOM      1  O   LIG    1       -1.404  32.376  62.886  0.00  0.00    -0.331 OA
ATOM      2  C   LIG    1       -2.544  33.079  62.395  0.00  0.00    +0.340 C 
ATOM      3  C   LIG    1       -2.155  34.488  61.949  0.00  0.00    +0.214 C 
ATOM      4  C   LIG    1       -1.004  34.455  60.944  0.00  0.00    +0.180 C 
ATOM      5  C   LIG    1        0.135  33.562  61.436  0.00  0.00    +0.177 C 
ATOM     38  C   LIG    1       -0.398  32.200  61.886  0.00  0.00    +0.179 C 
ENDROOT
BRANCH   5   6
ATOM      6  O   LIG    1        1.076  33.374  60.382  0.00  0.00    -0.386 OA
ATOM      7  H   LIG    1        1.961  33.577  60.729  0.00  0.00    +0.210 HD
ENDBRANCH   5   6
BRANCH   4   8
ATOM      8  O   LIG    1       -0.486  35.775  60.770  0.00  0.00    -0.386 OA
ATOM      9  H   LIG    1       -0.193  35.854  59.846  0.00  0.00    +0.210 HD
ENDBRANCH   4   8
BRANCH   3  10
ATOM     10  O   LIG    1       -3.295  35.097  61.343  0.00  0.00    -0.383 OA
ATOM     11  H   LIG    1       -3.610  34.510  60.635  0.00  0.00    +0.210 HD
ENDBRANCH   3  10
BRANCH   2  12
ATOM     12  O   LIG    1       -3.518  33.199  63.431  0.00  0.00    -0.453 OA
BRANCH  12  13
ATOM     13  C   LIG    1       -4.745  32.715  63.032  0.00  0.00    +0.214 A 
ATOM     14  C   LIG    1       -5.822  33.694  62.748  0.00  0.00    +0.238 A 
ATOM     15  C   LIG    1       -7.109  33.138  62.304  0.00  0.00    +0.109 A 
ATOM     16  C   LIG    1       -8.188  33.978  62.014  0.00  0.00    +0.135 A 
ATOM     17  C   LIG    1       -9.398  33.424  61.592  0.00  0.00    +0.091 A 
ATOM     18  C   LIG    1       -9.528  32.041  61.462  0.00  0.00    +0.124 A 
ATOM     19  C   LIG    1       -8.449  31.205  61.752  0.00  0.00    +0.092 A 
ATOM     24  C   LIG    1       -7.238  31.757  62.174  0.00  0.00    +0.147 A 
ATOM     25  O   LIG    1       -6.214  30.886  62.444  0.00  0.00    -0.451 OA
ATOM     26  O   LIG    1       -5.648  34.899  62.875  0.00  0.00    -0.283 OA
ATOM     27  C   LIG    1       -5.002  31.403  62.875  0.00  0.00    +0.181 A 
BRANCH  27  28
ATOM     28  C   LIG    1       -3.991  30.362  63.127  0.00  0.00    +0.025 A 
ATOM     29  C   LIG    1       -3.672  30.001  64.436  0.00  0.00    +0.015 A 
ATOM     30  C   LIG    1       -2.714  29.016  64.675  0.00  0.00    +0.050 A 
ATOM     31  C   LIG    1       -2.074  28.392  63.605  0.00  0.00    +0.158 A 
ATOM     32  C   LIG    1       -2.392  28.752  62.296  0.00  0.00    +0.159 A 
ATOM     37  C   LIG    1       -3.350  29.737  62.057  0.00  0.00    +0.060 A 
BRANCH  32  33
ATOM     33  O   LIG    1       -1.774  28.148  61.242  0.00  0.00    -0.503 OA
ATOM     34  H   LIG    1       -2.399  28.059  60.505  0.00  0.00    +0.292 HD
ENDBRANCH  32  33
BRANCH  31  35
ATOM     35  O   LIG    1       -1.139  27.432  63.851  0.00  0.00    -0.503 OA
ATOM     36  H   LIG    1       -1.356  26.967  64.674  0.00  0.00    +0.292 HD
ENDBRANCH  31  35
ENDBRANCH  27  28
BRANCH  18  20
ATOM     20  O   LIG    1      -10.709  31.505  61.050  0.00  0.00    -0.507 OA
ATOM     21  H   LIG    1      -11.438  32.065  61.368  0.00  0.00    +0.292 HD
ENDBRANCH  18  20
BRANCH  16  22
ATOM     22  O   LIG    1       -8.114  35.334  62.124  0.00  0.00    -0.506 OA
ATOM     23  H   LIG    1       -8.737  35.638  62.807  0.00  0.00    +0.292 HD
ENDBRANCH  16  22
ENDBRANCH  12  13
ENDBRANCH   2  12
BRANCH  38  39
ATOM     39  C   LIG    1        0.702  31.333  62.490  0.00  0.00    +0.197 C 
BRANCH  39  40
ATOM     40  O   LIG    1        1.488  32.128  63.366  0.00  0.00    -0.346 OA
BRANCH  40  41
ATOM     41  C   LIG    1        2.862  31.759  63.314  0.00  0.00    +0.282 C 
ATOM     42  C   LIG    1        3.737  33.006  63.428  0.00  0.00    +0.201 C 
ATOM     43  C   LIG    1        3.673  33.590  64.840  0.00  0.00    +0.179 C 
ATOM     44  C   LIG    1        3.973  32.518  65.889  0.00  0.00    +0.174 C 
ATOM     45  C   LIG    1        3.080  31.292  65.661  0.00  0.00    +0.149 C 
ATOM     46  C   LIG    1        3.444  30.138  66.593  0.00  0.00    +0.041 C 
ATOM     53  O   LIG    1        3.209  30.804  64.321  0.00  0.00    -0.343 OA
BRANCH  44  47
ATOM     47  O   LIG    1        3.724  33.077  67.178  0.00  0.00    -0.387 OA
ATOM     48  H   LIG    1        3.458  34.004  67.054  0.00  0.00    +0.210 HD
ENDBRANCH  44  47
BRANCH  43  49
ATOM     49  O   LIG    1        4.615  34.651  64.970  0.00  0.00    -0.386 OA
ATOM     50  H   LIG    1        4.123  35.489  64.949  0.00  0.00    +0.210 HD
ENDBRANCH  43  49
BRANCH  42  51
ATOM     51  O   LIG    1        5.079  32.626  63.118  0.00  0.00    -0.384 OA
ATOM     52  H   LIG    1        5.308  32.992  62.247  0.00  0.00    +0.210 HD
ENDBRANCH  42  51
ENDBRANCH  40  41
ENDBRANCH  39  40
ENDBRANCH  38  39
TORSDOF 16
ENDMDL
MODEL 3
REMARK VINA RESULT:      -7.9      1.450      2.082
REMARK  Name = 5280805
REMARK                            x       y       z     vdW  Elec       q    Type
REMARK                         _______ _______ _______ _____ _____    ______ ____
ROOT
ATOM      1  O   LIG    1       -2.247  32.224  61.752  0.00  0.00    -0.331 OA
ATOM      2  C   LIG    1       -0.977  32.861  61.867  0.00  0.00    +0.340 C 
ATOM      3  C   LIG    1       -0.920  34.109  60.985  0.00  0.00    +0.214 C 
ATOM      4  C   LIG    1       -2.085  35.053  61.283  0.00  0.00    +0.180 C 
ATOM      5  C   LIG    1       -3.416  34.300  61.307  0.00  0.00    +0.177 C 
ATOM     38  C   LIG    1       -3.320  33.057  62.195  0.00  0.00    +0.179 C 
ENDROOT
BRANCH   5   6
ATOM      6  O   LIG    1       -4.434  35.161  61.810  0.00  0.00    -0.386 OA
ATOM      7  H   LIG    1       -4.525  35.910  61.197  0.00  0.00    +0.210 HD
ENDBRANCH   5   6
BRANCH   4   8
ATOM      8  O   LIG    1       -2.161  36.050  60.262  0.00  0.00    -0.386 OA
ATOM      9  H   LIG    1       -2.332  36.902  60.700  0.00  0.00    +0.210 HD
ENDBRANCH   4   8
BRANCH   3  10
ATOM     10  O   LIG    1        0.313  34.781  61.239  0.00  0.00    -0.383 OA
ATOM     11  H   LIG    1        0.201  35.324  62.038  0.00  0.00    +0.210 HD
ENDBRANCH   3  10
BRANCH   2  12
ATOM     12  O   LIG    1        0.050  31.970  61.435  0.00  0.00    -0.453 OA
BRANCH  12  13
ATOM     13  C   LIG    1        0.760  31.460  62.499  0.00  0.00    +0.214 A 
ATOM     14  C   LIG    1        2.078  32.065  62.813  0.00  0.00    +0.238 A 
ATOM     15  C   LIG    1        2.793  31.506  63.970  0.00  0.00    +0.109 A 
ATOM     16  C   LIG    1        4.044  32.006  64.346  0.00  0.00    +0.135 A 
ATOM     17  C   LIG    1        4.700  31.458  65.449  0.00  0.00    +0.091 A 
ATOM     18  C   LIG    1        4.111  30.419  66.171  0.00  0.00    +0.124 A 
ATOM     19  C   LIG    1        2.863  29.924  65.793  0.00  0.00    +0.092 A 
ATOM     24  C   LIG    1        2.205  30.469  64.690  0.00  0.00    +0.147 A 
ATOM     25  O   LIG    1        0.981  29.941  64.368  0.00  0.00    -0.451 OA
ATOM     26  O   LIG    1        2.542  32.979  62.146  0.00  0.00    -0.283 OA
ATOM     27  C   LIG    1        0.307  30.454  63.271  0.00  0.00    +0.181 A 
BRANCH  27  28
ATOM     28  C   LIG    1       -0.992  29.800  63.036  0.00  0.00    +0.025 A 
ATOM     29  C   LIG    1       -1.200  29.059  61.873  0.00  0.00    +0.015 A 
ATOM     30  C   LIG    1       -2.430  28.440  61.652  0.00  0.00    +0.050 A 
ATOM     31  C   LIG    1       -3.452  28.562  62.592  0.00  0.00    +0.158 A 
ATOM     32  C   LIG    1       -3.245  29.303  63.755  0.00  0.00    +0.159 A 
ATOM     37  C   LIG    1       -2.014  29.922  63.977  0.00  0.00    +0.060 A 
BRANCH  32  33
ATOM     33  O   LIG    1       -4.235  29.428  64.683  0.00  0.00    -0.503 OA
ATOM     34  H   LIG    1       -4.939  28.785  64.497  0.00  0.00    +0.292 HD
ENDBRANCH  32  33
BRANCH  31  35
ATOM     35  O   LIG    1       -4.650  27.954  62.364  0.00  0.00    -0.503 OA
ATOM     36  H   LIG    1       -4.582  27.380  61.585  0.00  0.00    +0.292 HD
ENDBRANCH  31  35
ENDBRANCH  27  28
BRANCH  18  20
ATOM     20  O   LIG    1        4.755  29.889  67.247  0.00  0.00    -0.507 OA
ATOM     21  H   LIG    1        4.676  28.920  67.216  0.00  0.00    +0.292 HD
ENDBRANCH  18  20
BRANCH  16  22
ATOM     22  O   LIG    1        4.662  33.018  63.676  0.00  0.00    -0.506 OA
ATOM     23  H   LIG    1        4.078  33.344  62.970  0.00  0.00    +0.292 HD
ENDBRANCH  16  22
ENDBRANCH  12  13
ENDBRANCH   2  12
BRANCH  38  39
ATOM     39  C   LIG    1       -4.598  32.226  62.143  0.00  0.00    +0.197 C 
BRANCH  39  40
ATOM     40  O   LIG    1       -5.657  32.971  62.728  0.00  0.00    -0.346 OA
BRANCH  40  41
ATOM     41  C   LIG    1       -5.614  32.910  64.150  0.00  0.00    +0.282 C 
ATOM     42  C   LIG    1       -6.192  34.196  64.739  0.00  0.00    +0.201 C 
ATOM     43  C   LIG    1       -7.705  34.263  64.522  0.00  0.00    +0.179 C 
ATOM     44  C   LIG    1       -8.386  32.988  65.018  0.00  0.00    +0.174 C 
ATOM     45  C   LIG    1       -7.706  31.755  64.409  0.00  0.00    +0.149 C 
ATOM     46  C   LIG    1       -8.256  30.453  64.987  0.00  0.00    +0.041 C 
ATOM     53  O   LIG    1       -6.297  31.764  64.667  0.00  0.00    -0.343 OA
BRANCH  44  47
ATOM     47  O   LIG    1       -9.757  33.037  64.628  0.00  0.00    -0.387 OA
ATOM     48  H   LIG    1       -9.869  33.793  64.027  0.00  0.00    +0.210 HD
ENDBRANCH  44  47
BRANCH  43  49
ATOM     49  O   LIG    1       -8.245  35.385  65.217  0.00  0.00    -0.386 OA
ATOM     50  H   LIG    1       -9.088  35.618  64.793  0.00  0.00    +0.210 HD
ENDBRANCH  43  49
BRANCH  42  51
ATOM     51  O   LIG    1       -5.900  34.202  66.138  0.00  0.00    -0.384 OA
ATOM     52  H   LIG    1       -5.485  35.053  66.360  0.00  0.00    +0.210 HD
ENDBRANCH  42  51
ENDBRANCH  40  41
ENDBRANCH  39  40
ENDBRANCH  38  39
TORSDOF 16
ENDMDL
MODEL 4
REMARK VINA RESULT:      -7.6      2.125      9.788
REMARK  Name = 5280805
REMARK                            x       y       z     vdW  Elec       q    Type
REMARK                         _______ _______ _______ _____ _____    ______ ____
ROOT
ATOM      1  O   LIG    1        0.728  29.617  63.814  0.00  0.00    -0.331 OA
ATOM      2  C   LIG    1       -0.695  29.528  63.802  0.00  0.00    +0.340 C 
ATOM      3  C   LIG    1       -1.146  28.099  64.104  0.00  0.00    +0.214 C 
ATOM      4  C   LIG    1       -0.533  27.587  65.408  0.00  0.00    +0.180 C 
ATOM      5  C   LIG    1        0.974  27.845  65.449  0.00  0.00    +0.177 C 
ATOM     38  C   LIG    1        1.285  29.300  65.091  0.00  0.00    +0.179 C 
ENDROOT
BRANCH   5   6
ATOM      6  O   LIG    1        1.462  27.568  66.759  0.00  0.00    -0.386 OA
ATOM      7  H   LIG    1        2.311  27.103  66.671  0.00  0.00    +0.210 HD
ENDBRANCH   5   6
BRANCH   4   8
ATOM      8  O   LIG    1       -0.742  26.177  65.510  0.00  0.00    -0.386 OA
ATOM      9  H   LIG    1       -1.539  25.963  64.996  0.00  0.00    +0.210 HD
ENDBRANCH   4   8
BRANCH   3  10
ATOM     10  O   LIG    1       -2.569  28.093  64.215  0.00  0.00    -0.383 OA
ATOM     11  H   LIG    1       -2.933  27.695  63.407  0.00  0.00    +0.210 HD
ENDBRANCH   3  10
BRANCH   2  12
ATOM     12  O   LIG    1       -1.189  29.881  62.510  0.00  0.00    -0.453 OA
BRANCH  12  13
ATOM     13  C   LIG    1       -1.985  31.004  62.561  0.00  0.00    +0.214 A 
ATOM     14  C   LIG    1       -3.449  30.828  62.402  0.00  0.00    +0.238 A 
ATOM     15  C   LIG    1       -4.265  32.049  62.484  0.00  0.00    +0.109 A 
ATOM     16  C   LIG    1       -5.655  31.990  62.345  0.00  0.00    +0.135 A 
ATOM     17  C   LIG    1       -6.405  33.164  62.430  0.00  0.00    +0.091 A 
ATOM     18  C   LIG    1       -5.772  34.387  62.651  0.00  0.00    +0.124 A 
ATOM     19  C   LIG    1       -4.385  34.442  62.790  0.00  0.00    +0.092 A 
ATOM     24  C   LIG    1       -3.632  33.270  62.705  0.00  0.00    +0.147 A 
ATOM     25  O   LIG    1       -2.274  33.387  62.850  0.00  0.00    -0.451 OA
ATOM     26  O   LIG    1       -3.950  29.728  62.215  0.00  0.00    -0.283 OA
ATOM     27  C   LIG    1       -1.497  32.242  62.761  0.00  0.00    +0.181 A 
BRANCH  27  28
ATOM     28  C   LIG    1       -0.059  32.508  62.935  0.00  0.00    +0.025 A 
ATOM     29  C   LIG    1        0.801  32.443  61.839  0.00  0.00    +0.015 A 
ATOM     30  C   LIG    1        2.162  32.695  62.003  0.00  0.00    +0.050 A 
ATOM     31  C   LIG    1        2.666  33.010  63.265  0.00  0.00    +0.158 A 
ATOM     32  C   LIG    1        1.808  33.075  64.362  0.00  0.00    +0.159 A 
ATOM     37  C   LIG    1        0.445  32.824  64.197  0.00  0.00    +0.060 A 
BRANCH  32  33
ATOM     33  O   LIG    1        2.287  33.384  65.600  0.00  0.00    -0.503 OA
ATOM     34  H   LIG    1        2.499  34.331  65.641  0.00  0.00    +0.292 HD
ENDBRANCH  32  33
BRANCH  31  35
ATOM     35  O   LIG    1        3.998  33.252  63.414  0.00  0.00    -0.503 OA
ATOM     36  H   LIG    1        4.252  33.125  64.341  0.00  0.00    +0.292 HD
ENDBRANCH  31  35
ENDBRANCH  27  28
BRANCH  18  20
ATOM     20  O   LIG    1       -6.508  35.529  62.733  0.00  0.00    -0.507 OA
ATOM     21  H   LIG    1       -7.282  35.366  63.299  0.00  0.00    +0.292 HD
ENDBRANCH  18  20
BRANCH  16  22
ATOM     22  O   LIG    1       -6.323  30.823  62.129  0.00  0.00    -0.506 OA
ATOM     23  H   LIG    1       -6.058  30.452  61.269  0.00  0.00    +0.292 HD
ENDBRANCH  16  22
ENDBRANCH  12  13
ENDBRANCH   2  12
BRANCH  38  39
ATOM     39  C   LIG    1        2.788  29.553  65.012  0.00  0.00    +0.197 C 
BRANCH  39  40
ATOM     40  O   LIG    1        3.165  30.425  66.068  0.00  0.00    -0.346 OA
BRANCH  40  41
ATOM     41  C   LIG    1        4.431  30.067  66.612  0.00  0.00    +0.282 C 
ATOM     42  C   LIG    1        5.500  31.039  66.115  0.00  0.00    +0.201 C 
ATOM     43  C   LIG    1        5.319  32.419  66.750  0.00  0.00    +0.179 C 
ATOM     44  C   LIG    1        5.230  32.314  68.273  0.00  0.00    +0.174 C 
ATOM     45  C   LIG    1        4.167  31.282  68.669  0.00  0.00    +0.149 C 
ATOM     46  C   LIG    1        4.142  31.034  70.175  0.00  0.00    +0.041 C 
ATOM     53  O   LIG    1        4.416  30.019  68.042  0.00  0.00    -0.343 OA
BRANCH  44  47
ATOM     47  O   LIG    1        4.887  33.599  68.787  0.00  0.00    -0.387 OA
ATOM     48  H   LIG    1        5.422  34.260  68.316  0.00  0.00    +0.210 HD
ENDBRANCH  44  47
BRANCH  43  49
ATOM     49  O   LIG    1        6.416  33.261  66.401  0.00  0.00    -0.386 OA
ATOM     50  H   LIG    1        7.214  32.708  66.361  0.00  0.00    +0.210 HD
ENDBRANCH  43  49
BRANCH  42  51
ATOM     51  O   LIG    1        6.775  30.502  66.472  0.00  0.00    -0.384 OA
ATOM     52  H   LIG    1        7.239  30.245  65.656  0.00  0.00    +0.210 HD
ENDBRANCH  42  51
ENDBRANCH  40  41
ENDBRANCH  39  40
ENDBRANCH  38  39
TORSDOF 16
ENDMDL
MODEL 5
REMARK VINA RESULT:      -7.6      2.965      5.533
REMARK  Name = 5280805
REMARK                            x       y       z     vdW  Elec       q    Type
REMARK                         _______ _______ _______ _____ _____    ______ ____
ROOT
ATOM      1  O   LIG    1       -0.305  30.162  63.287  0.00  0.00    -0.331 OA
ATOM      2  C   LIG    1       -0.657  29.132  64.209  0.00  0.00    +0.340 C 
ATOM      3  C   LIG    1       -2.117  28.719  64.020  0.00  0.00    +0.214 C 
ATOM      4  C   LIG    1       -2.402  28.336  62.568  0.00  0.00    +0.180 C 
ATOM      5  C   LIG    1       -1.867  29.393  61.601  0.00  0.00    +0.177 C 
ATOM     38  C   LIG    1       -0.412  29.739  61.927  0.00  0.00    +0.179 C 
ENDROOT
BRANCH   5   6
ATOM      6  O   LIG    1       -1.945  28.894  60.268  0.00  0.00    -0.386 OA
ATOM      7  H   LIG    1       -1.061  28.582  60.011  0.00  0.00    +0.210 HD
ENDBRANCH   5   6
BRANCH   4   8
ATOM      8  O   LIG    1       -3.814  28.234  62.372  0.00  0.00    -0.386 OA
ATOM      9  H   LIG    1       -4.128  29.100  62.058  0.00  0.00    +0.210 HD
ENDBRANCH   4   8
BRANCH   3  10
ATOM     10  O   LIG    1       -2.378  27.599  64.865  0.00  0.00    -0.383 OA
ATOM     11  H   LIG    1       -2.825  27.924  65.665  0.00  0.00    +0.210 HD
ENDBRANCH   3  10
BRANCH   2  12
ATOM     12  O   LIG    1       -0.504  29.609  65.545  0.00  0.00    -0.453 OA
BRANCH  12  13
ATOM     13  C   LIG    1        0.819  29.633  65.927  0.00  0.00    +0.214 A 
ATOM     14  C   LIG    1        1.523  30.938  65.919  0.00  0.00    +0.238 A 
ATOM     15  C   LIG    1        2.929  30.924  66.354  0.00  0.00    +0.109 A 
ATOM     16  C   LIG    1        3.680  32.103  66.379  0.00  0.00    +0.135 A 
ATOM     17  C   LIG    1        5.010  32.061  66.799  0.00  0.00    +0.091 A 
ATOM     18  C   LIG    1        5.585  30.852  67.189  0.00  0.00    +0.124 A 
ATOM     19  C   LIG    1        4.832  29.678  67.162  0.00  0.00    +0.092 A 
ATOM     24  C   LIG    1        3.502  29.716  66.743  0.00  0.00    +0.147 A 
ATOM     25  O   LIG    1        2.813  28.531  66.739  0.00  0.00    -0.451 OA
ATOM     26  O   LIG    1        0.965  31.970  65.571  0.00  0.00    -0.283 OA
ATOM     27  C   LIG    1        1.492  28.535  66.319  0.00  0.00    +0.181 A 
BRANCH  27  28
ATOM     28  C   LIG    1        0.870  27.201  66.364  0.00  0.00    +0.025 A 
ATOM     29  C   LIG    1        0.274  26.747  67.541  0.00  0.00    +0.015 A 
ATOM     30  C   LIG    1       -0.315  25.484  67.583  0.00  0.00    +0.050 A 
ATOM     31  C   LIG    1       -0.307  24.672  66.449  0.00  0.00    +0.158 A 
ATOM     32  C   LIG    1        0.288  25.124  65.272  0.00  0.00    +0.159 A 
ATOM     37  C   LIG    1        0.876  26.389  65.229  0.00  0.00    +0.060 A 
BRANCH  32  33
ATOM     33  O   LIG    1        0.300  24.342  64.157  0.00  0.00    -0.503 OA
ATOM     34  H   LIG    1        0.388  24.900  63.367  0.00  0.00    +0.292 HD
ENDBRANCH  32  33
BRANCH  31  35
ATOM     35  O   LIG    1       -0.884  23.439  66.503  0.00  0.00    -0.503 OA
ATOM     36  H   LIG    1       -1.654  23.464  67.093  0.00  0.00    +0.292 HD
ENDBRANCH  31  35
ENDBRANCH  27  28
BRANCH  18  20
ATOM     20  O   LIG    1        6.883  30.816  67.597  0.00  0.00    -0.507 OA
ATOM     21  H   LIG    1        7.105  29.909  67.867  0.00  0.00    +0.292 HD
ENDBRANCH  18  20
BRANCH  16  22
ATOM     22  O   LIG    1        3.167  33.310  66.009  0.00  0.00    -0.506 OA
ATOM     23  H   LIG    1        3.612  33.616  65.200  0.00  0.00    +0.292 HD
ENDBRANCH  16  22
ENDBRANCH  12  13
ENDBRANCH   2  12
BRANCH  38  39
ATOM     39  C   LIG    1        0.109  30.874  61.051  0.00  0.00    +0.197 C 
BRANCH  39  40
ATOM     40  O   LIG    1       -0.885  31.886  60.966  0.00  0.00    -0.346 OA
BRANCH  40  41
ATOM     41  C   LIG    1       -0.472  33.078  61.626  0.00  0.00    +0.282 C 
ATOM     42  C   LIG    1       -0.786  34.289  60.749  0.00  0.00    +0.201 C 
ATOM     43  C   LIG    1       -2.294  34.534  60.677  0.00  0.00    +0.179 C 
ATOM     44  C   LIG    1       -2.905  34.602  62.077  0.00  0.00    +0.174 C 
ATOM     45  C   LIG    1       -2.494  33.369  62.893  0.00  0.00    +0.149 C 
ATOM     46  C   LIG    1       -2.959  33.463  64.344  0.00  0.00    +0.041 C 
ATOM     53  O   LIG    1       -1.070  33.221  62.918  0.00  0.00    -0.343 OA
BRANCH  44  47
ATOM     47  O   LIG    1       -4.324  34.653  61.940  0.00  0.00    -0.387 OA
ATOM     48  H   LIG    1       -4.526  35.131  61.119  0.00  0.00    +0.210 HD
ENDBRANCH  44  47
BRANCH  43  49
ATOM     49  O   LIG    1       -2.555  35.756  59.991  0.00  0.00    -0.386 OA
ATOM     50  H   LIG    1       -3.426  35.676  59.564  0.00  0.00    +0.210 HD
ENDBRANCH  43  49
BRANCH  42  51
ATOM     51  O   LIG    1       -0.135  35.423  61.324  0.00  0.00    -0.384 OA
ATOM     52  H   LIG    1        0.810  35.382  61.098  0.00  0.00    +0.210 HD
ENDBRANCH  42  51
ENDBRANCH  40  41
ENDBRANCH  39  40
ENDBRANCH  38  39
TORSDOF 16
ENDMDL
MODEL 6
REMARK VINA RESULT:      -7.5      1.852      8.692
REMARK  Name = 5280805
REMARK                            x       y       z     vdW  Elec       q    Type
REMARK                         _______ _______ _______ _____ _____    ______ ____
ROOT
ATOM      1  O   LIG    1       -1.408  31.799  62.813  0.00  0.00    -0.331 OA
ATOM      2  C   LIG    1       -2.635  32.328  62.315  0.00  0.00    +0.340 C 
ATOM      3  C   LIG    1       -2.468  33.798  61.929  0.00  0.00    +0.214 C 
ATOM      4  C   LIG    1       -1.304  33.988  60.956  0.00  0.00    +0.180 C 
ATOM      5  C   LIG    1       -0.047  33.270  61.450  0.00  0.00    +0.177 C 
ATOM     38  C   LIG    1       -0.365  31.824  61.837  0.00  0.00    +0.179 C 
ENDROOT
BRANCH   5   6
ATOM      6  O   LIG    1        0.935  33.276  60.417  0.00  0.00    -0.386 OA
ATOM      7  H   LIG    1        0.681  33.951  59.765  0.00  0.00    +0.210 HD
ENDBRANCH   5   6
BRANCH   4   8
ATOM      8  O   LIG    1       -1.001  35.380  60.843  0.00  0.00    -0.386 OA
ATOM      9  H   LIG    1       -1.592  35.856  61.451  0.00  0.00    +0.210 HD
ENDBRANCH   4   8
BRANCH   3  10
ATOM     10  O   LIG    1       -3.677  34.239  61.313  0.00  0.00    -0.383 OA
ATOM     11  H   LIG    1       -4.328  33.520  61.378  0.00  0.00    +0.210 HD
ENDBRANCH   3  10
BRANCH   2  12
ATOM     12  O   LIG    1       -3.638  32.250  63.327  0.00  0.00    -0.453 OA
BRANCH  12  13
ATOM     13  C   LIG    1       -4.510  31.209  63.097  0.00  0.00    +0.214 A 
ATOM     14  C   LIG    1       -5.668  31.452  62.203  0.00  0.00    +0.238 A 
ATOM     15  C   LIG    1       -6.562  30.309  61.967  0.00  0.00    +0.109 A 
ATOM     16  C   LIG    1       -7.683  30.437  61.141  0.00  0.00    +0.135 A 
ATOM     17  C   LIG    1       -8.513  29.335  60.932  0.00  0.00    +0.091 A 
ATOM     18  C   LIG    1       -8.226  28.114  61.544  0.00  0.00    +0.124 A 
ATOM     19  C   LIG    1       -7.106  27.990  62.367  0.00  0.00    +0.092 A 
ATOM     24  C   LIG    1       -6.275  29.090  62.578  0.00  0.00    +0.147 A 
ATOM     25  O   LIG    1       -5.190  28.907  63.396  0.00  0.00    -0.451 OA
ATOM     26  O   LIG    1       -5.867  32.545  61.689  0.00  0.00    -0.283 OA
ATOM     27  C   LIG    1       -4.350  29.984  63.632  0.00  0.00    +0.181 A 
BRANCH  27  28
ATOM     28  C   LIG    1       -3.226  29.652  64.525  0.00  0.00    +0.025 A 
ATOM     29  C   LIG    1       -3.148  30.227  65.794  0.00  0.00    +0.015 A 
ATOM     30  C   LIG    1       -2.085  29.912  66.639  0.00  0.00    +0.050 A 
ATOM     31  C   LIG    1       -1.097  29.022  66.216  0.00  0.00    +0.158 A 
ATOM     32  C   LIG    1       -1.174  28.447  64.948  0.00  0.00    +0.159 A 
ATOM     37  C   LIG    1       -2.239  28.761  64.103  0.00  0.00    +0.060 A 
BRANCH  32  33
ATOM     33  O   LIG    1       -0.217  27.575  64.524  0.00  0.00    -0.503 OA
ATOM     34  H   LIG    1       -0.515  27.131  63.713  0.00  0.00    +0.292 HD
ENDBRANCH  32  33
BRANCH  31  35
ATOM     35  O   LIG    1       -0.062  28.724  67.049  0.00  0.00    -0.503 OA
ATOM     36  H   LIG    1       -0.360  28.774  67.971  0.00  0.00    +0.292 HD
ENDBRANCH  31  35
ENDBRANCH  27  28
BRANCH  18  20
ATOM     20  O   LIG    1       -9.039  27.042  61.337  0.00  0.00    -0.507 OA
ATOM     21  H   LIG    1       -8.501  26.232  61.345  0.00  0.00    +0.292 HD
ENDBRANCH  18  20
BRANCH  16  22
ATOM     22  O   LIG    1       -8.008  31.605  60.519  0.00  0.00    -0.506 OA
ATOM     23  H   LIG    1       -7.438  31.727  59.740  0.00  0.00    +0.292 HD
ENDBRANCH  16  22
ENDBRANCH  12  13
ENDBRANCH   2  12
BRANCH  38  39
ATOM     39  C   LIG    1        0.847  31.121  62.442  0.00  0.00    +0.197 C 
BRANCH  39  40
ATOM     40  O   LIG    1        1.557  32.044  63.256  0.00  0.00    -0.346 OA
BRANCH  40  41
ATOM     41  C   LIG    1        2.931  31.688  63.370  0.00  0.00    +0.282 C 
ATOM     42  C   LIG    1        3.787  32.952  63.442  0.00  0.00    +0.201 C 
ATOM     43  C   LIG    1        3.587  33.670  64.778  0.00  0.00    +0.179 C 
ATOM     44  C   LIG    1        3.790  32.711  65.951  0.00  0.00    +0.174 C 
ATOM     45  C   LIG    1        2.927  31.457  65.762  0.00  0.00    +0.149 C 
ATOM     46  C   LIG    1        3.204  30.405  66.834  0.00  0.00    +0.041 C 
ATOM     53  O   LIG    1        3.184  30.841  64.495  0.00  0.00    -0.343 OA
BRANCH  44  47
ATOM     47  O   LIG    1        3.418  33.391  67.148  0.00  0.00    -0.387 OA
ATOM     48  H   LIG    1        2.462  33.562  67.109  0.00  0.00    +0.210 HD
ENDBRANCH  44  47
BRANCH  43  49
ATOM     49  O   LIG    1        4.510  34.752  64.890  0.00  0.00    -0.386 OA
ATOM     50  H   LIG    1        5.164  34.659  64.176  0.00  0.00    +0.210 HD
ENDBRANCH  43  49
BRANCH  42  51
ATOM     51  O   LIG    1        5.153  32.560  63.299  0.00  0.00    -0.384 OA
ATOM     52  H   LIG    1        5.188  31.770  62.732  0.00  0.00    +0.210 HD
ENDBRANCH  42  51
ENDBRANCH  40  41
ENDBRANCH  39  40
ENDBRANCH  38  39
TORSDOF 16
ENDMDL
MODEL 7
REMARK VINA RESULT:      -7.3      6.611     13.192
REMARK  Name = 5280805
REMARK                            x       y       z     vdW  Elec       q    Type
REMARK                         _______ _______ _______ _____ _____    ______ ____
ROOT
ATOM      1  O   LIG    1        6.592  29.340  69.651  0.00  0.00    -0.331 OA
ATOM      2  C   LIG    1        6.809  30.711  69.322  0.00  0.00    +0.340 C 
ATOM      3  C   LIG    1        8.040  31.250  70.050  0.00  0.00    +0.214 C 
ATOM      4  C   LIG    1        9.268  30.377  69.786  0.00  0.00    +0.180 C 
ATOM      5  C   LIG    1        8.950  28.897  69.996  0.00  0.00    +0.177 C 
ATOM     38  C   LIG    1        7.676  28.502  69.244  0.00  0.00    +0.179 C 
ENDROOT
BRANCH   5   6
ATOM      6  O   LIG    1       10.040  28.110  69.521  0.00  0.00    -0.386 OA
ATOM      7  H   LIG    1        9.944  28.014  68.558  0.00  0.00    +0.210 HD
ENDBRANCH   5   6
BRANCH   4   8
ATOM      8  O   LIG    1       10.311  30.738  70.693  0.00  0.00    -0.386 OA
ATOM      9  H   LIG    1        9.898  31.191  71.447  0.00  0.00    +0.210 HD
ENDBRANCH   4   8
BRANCH   3  10
ATOM     10  O   LIG    1        8.292  32.575  69.585  0.00  0.00    -0.383 OA
ATOM     11  H   LIG    1        8.920  32.995  70.195  0.00  0.00    +0.210 HD
ENDBRANCH   3  10
BRANCH   2  12
ATOM     12  O   LIG    1        5.683  31.487  69.729  0.00  0.00    -0.453 OA
BRANCH  12  13
ATOM     13  C   LIG    1        4.823  31.724  68.679  0.00  0.00    +0.214 A 
ATOM     14  C   LIG    1        5.234  32.712  67.652  0.00  0.00    +0.238 A 
ATOM     15  C   LIG    1        4.298  32.920  66.536  0.00  0.00    +0.109 A 
ATOM     16  C   LIG    1        4.592  33.832  65.518  0.00  0.00    +0.135 A 
ATOM     17  C   LIG    1        3.687  34.007  64.470  0.00  0.00    +0.091 A 
ATOM     18  C   LIG    1        2.498  33.278  64.440  0.00  0.00    +0.124 A 
ATOM     19  C   LIG    1        2.209  32.369  65.457  0.00  0.00    +0.092 A 
ATOM     24  C   LIG    1        3.111  32.191  66.507  0.00  0.00    +0.147 A 
ATOM     25  O   LIG    1        2.772  31.283  67.477  0.00  0.00    -0.451 OA
ATOM     26  O   LIG    1        6.293  33.319  67.728  0.00  0.00    -0.283 OA
ATOM     27  C   LIG    1        3.644  31.092  68.537  0.00  0.00    +0.181 A 
BRANCH  27  28
ATOM     28  C   LIG    1        3.160  30.092  69.505  0.00  0.00    +0.025 A 
ATOM     29  C   LIG    1        2.418  30.496  70.615  0.00  0.00    +0.015 A 
ATOM     30  C   LIG    1        1.961  29.550  71.531  0.00  0.00    +0.050 A 
ATOM     31  C   LIG    1        2.246  28.198  71.339  0.00  0.00    +0.158 A 
ATOM     32  C   LIG    1        2.987  27.793  70.230  0.00  0.00    +0.159 A 
ATOM     37  C   LIG    1        3.444  28.740  69.313  0.00  0.00    +0.060 A 
BRANCH  32  33
ATOM     33  O   LIG    1        3.271  26.475  70.030  0.00  0.00    -0.503 OA
ATOM     34  H   LIG    1        4.129  26.390  69.584  0.00  0.00    +0.292 HD
ENDBRANCH  32  33
BRANCH  31  35
ATOM     35  O   LIG    1        1.795  27.282  72.241  0.00  0.00    -0.503 OA
ATOM     36  H   LIG    1        1.643  26.433  71.798  0.00  0.00    +0.292 HD
ENDBRANCH  31  35
ENDBRANCH  27  28
BRANCH  18  20
ATOM     20  O   LIG    1        1.619  33.453  63.415  0.00  0.00    -0.507 OA
ATOM     21  H   LIG    1        1.277  34.363  63.444  0.00  0.00    +0.292 HD
ENDBRANCH  18  20
BRANCH  16  22
ATOM     22  O   LIG    1        5.738  34.568  65.499  0.00  0.00    -0.506 OA
ATOM     23  H   LIG    1        5.540  35.482  65.768  0.00  0.00    +0.292 HD
ENDBRANCH  16  22
ENDBRANCH  12  13
ENDBRANCH   2  12
BRANCH  38  39
ATOM     39  C   LIG    1        7.274  27.059  69.532  0.00  0.00    +0.197 C 
BRANCH  39  40
ATOM     40  O   LIG    1        7.831  26.664  70.778  0.00  0.00    -0.346 OA
BRANCH  40  41
ATOM     41  C   LIG    1        6.823  26.225  71.683  0.00  0.00    +0.282 C 
ATOM     42  C   LIG    1        6.686  24.705  71.605  0.00  0.00    +0.201 C 
ATOM     43  C   LIG    1        7.909  24.016  72.214  0.00  0.00    +0.179 C 
ATOM     44  C   LIG    1        8.193  24.547  73.620  0.00  0.00    +0.174 C 
ATOM     45  C   LIG    1        8.263  26.079  73.601  0.00  0.00    +0.149 C 
ATOM     46  C   LIG    1        8.399  26.663  75.006  0.00  0.00    +0.041 C 
ATOM     53  O   LIG    1        7.079  26.642  73.028  0.00  0.00    -0.343 OA
BRANCH  44  47
ATOM     47  O   LIG    1        9.435  24.000  74.058  0.00  0.00    -0.387 OA
ATOM     48  H   LIG    1        9.735  23.367  73.384  0.00  0.00    +0.210 HD
ENDBRANCH  44  47
BRANCH  43  49
ATOM     49  O   LIG    1        7.691  22.608  72.279  0.00  0.00    -0.386 OA
ATOM     50  H   LIG    1        6.731  22.458  72.298  0.00  0.00    +0.210 HD
ENDBRANCH  43  49
BRANCH  42  51
ATOM     51  O   LIG    1        5.510  24.337  72.327  0.00  0.00    -0.384 OA
ATOM     52  H   LIG    1        5.684  23.501  72.792  0.00  0.00    +0.210 HD
ENDBRANCH  42  51
ENDBRANCH  40  41
ENDBRANCH  39  40
ENDBRANCH  38  39
TORSDOF 16
ENDMDL
MODEL 8
REMARK VINA RESULT:      -7.2      2.972      9.560
REMARK  Name = 5280805
REMARK                            x       y       z     vdW  Elec       q    Type
REMARK                         _______ _______ _______ _____ _____    ______ ____
ROOT
ATOM      1  O   LIG    1       -0.895  32.137  65.544  0.00  0.00    -0.331 OA
ATOM      2  C   LIG    1       -2.146  32.196  66.225  0.00  0.00    +0.340 C 
ATOM      3  C   LIG    1       -1.984  31.768  67.684  0.00  0.00    +0.214 C 
ATOM      4  C   LIG    1       -0.892  32.577  68.383  0.00  0.00    +0.180 C 
ATOM      5  C   LIG    1        0.386  32.623  67.545  0.00  0.00    +0.177 C 
ATOM     38  C   LIG    1        0.074  33.028  66.102  0.00  0.00    +0.179 C 
ENDROOT
BRANCH   5   6
ATOM      6  O   LIG    1        1.289  33.567  68.114  0.00  0.00    -0.386 OA
ATOM      7  H   LIG    1        0.871  34.444  68.076  0.00  0.00    +0.210 HD
ENDBRANCH   5   6
BRANCH   4   8
ATOM      8  O   LIG    1       -0.576  31.967  69.636  0.00  0.00    -0.386 OA
ATOM      9  H   LIG    1       -1.005  32.492  70.332  0.00  0.00    +0.210 HD
ENDBRANCH   4   8
BRANCH   3  10
ATOM     10  O   LIG    1       -3.229  31.974  68.352  0.00  0.00    -0.383 OA
ATOM     11  H   LIG    1       -3.916  31.489  67.865  0.00  0.00    +0.210 HD
ENDBRANCH   3  10
BRANCH   2  12
ATOM     12  O   LIG    1       -3.074  31.306  65.606  0.00  0.00    -0.453 OA
BRANCH  12  13
ATOM     13  C   LIG    1       -3.950  31.979  64.783  0.00  0.00    +0.214 A 
ATOM     14  C   LIG    1       -5.052  32.744  65.416  0.00  0.00    +0.238 A 
ATOM     15  C   LIG    1       -5.953  33.466  64.504  0.00  0.00    +0.109 A 
ATOM     16  C   LIG    1       -7.024  34.213  65.002  0.00  0.00    +0.135 A 
ATOM     17  C   LIG    1       -7.861  34.891  64.114  0.00  0.00    +0.091 A 
ATOM     18  C   LIG    1       -7.631  34.821  62.740  0.00  0.00    +0.124 A 
ATOM     19  C   LIG    1       -6.560  34.074  62.247  0.00  0.00    +0.092 A 
ATOM     24  C   LIG    1       -5.721  33.395  63.132  0.00  0.00    +0.147 A 
ATOM     25  O   LIG    1       -4.687  32.679  62.589  0.00  0.00    -0.451 OA
ATOM     26  O   LIG    1       -5.203  32.773  66.630  0.00  0.00    -0.283 OA
ATOM     27  C   LIG    1       -3.842  31.986  63.442  0.00  0.00    +0.181 A 
BRANCH  27  28
ATOM     28  C   LIG    1       -2.775  31.261  62.730  0.00  0.00    +0.025 A 
ATOM     29  C   LIG    1       -1.634  31.939  62.303  0.00  0.00    +0.015 A 
ATOM     30  C   LIG    1       -0.624  31.253  61.630  0.00  0.00    +0.050 A 
ATOM     31  C   LIG    1       -0.755  29.886  61.383  0.00  0.00    +0.158 A 
ATOM     32  C   LIG    1       -1.895  29.207  61.809  0.00  0.00    +0.159 A 
ATOM     37  C   LIG    1       -2.905  29.894  62.483  0.00  0.00    +0.060 A 
BRANCH  32  33
ATOM     33  O   LIG    1       -2.034  27.871  61.575  0.00  0.00    -0.503 OA
ATOM     34  H   LIG    1       -2.183  27.407  62.415  0.00  0.00    +0.292 HD
ENDBRANCH  32  33
BRANCH  31  35
ATOM     35  O   LIG    1        0.237  29.226  60.723  0.00  0.00    -0.503 OA
ATOM     36  H   LIG    1       -0.150  28.601  60.090  0.00  0.00    +0.292 HD
ENDBRANCH  31  35
ENDBRANCH  27  28
BRANCH  18  20
ATOM     20  O   LIG    1       -8.450  35.483  61.878  0.00  0.00    -0.507 OA
ATOM     21  H   LIG    1       -7.977  36.255  61.523  0.00  0.00    +0.292 HD
ENDBRANCH  18  20
BRANCH  16  22
ATOM     22  O   LIG    1       -7.294  34.315  66.333  0.00  0.00    -0.506 OA
ATOM     23  H   LIG    1       -7.406  33.426  66.710  0.00  0.00    +0.292 HD
ENDBRANCH  16  22
ENDBRANCH  12  13
ENDBRANCH   2  12
BRANCH  38  39
ATOM     39  C   LIG    1        1.316  32.968  65.217  0.00  0.00    +0.197 C 
BRANCH  39  40
ATOM     40  O   LIG    1        2.304  32.176  65.861  0.00  0.00    -0.346 OA
BRANCH  40  41
ATOM     41  C   LIG    1        3.382  31.873  64.983  0.00  0.00    +0.282 C 
ATOM     42  C   LIG    1        4.170  33.145  64.675  0.00  0.00    +0.201 C 
ATOM     43  C   LIG    1        4.952  33.613  65.903  0.00  0.00    +0.179 C 
ATOM     44  C   LIG    1        5.800  32.477  66.478  0.00  0.00    +0.174 C 
ATOM     45  C   LIG    1        4.931  31.234  66.706  0.00  0.00    +0.149 C 
ATOM     46  C   LIG    1        5.760  30.028  67.141  0.00  0.00    +0.041 C 
ATOM     53  O   LIG    1        4.244  30.858  65.507  0.00  0.00    -0.343 OA
BRANCH  44  47
ATOM     47  O   LIG    1        6.359  32.922  67.712  0.00  0.00    -0.387 OA
ATOM     48  H   LIG    1        7.149  32.385  67.891  0.00  0.00    +0.210 HD
ENDBRANCH  44  47
BRANCH  43  49
ATOM     49  O   LIG    1        5.803  34.702  65.552  0.00  0.00    -0.386 OA
ATOM     50  H   LIG    1        5.622  35.431  66.170  0.00  0.00    +0.210 HD
ENDBRANCH  43  49
BRANCH  42  51
ATOM     51  O   LIG    1        5.072  32.850  63.607  0.00  0.00    -0.384 OA
ATOM     52  H   LIG    1        5.893  33.351  63.751  0.00  0.00    +0.210 HD
ENDBRANCH  42  51
ENDBRANCH  40  41
ENDBRANCH  39  40
ENDBRANCH  38  39
TORSDOF 16
ENDMDL
MODEL 9
REMARK VINA RESULT:      -7.0     16.432     20.814
REMARK  Name = 5280805
REMARK                            x       y       z     vdW  Elec       q    Type
REMARK                         _______ _______ _______ _____ _____    ______ ____
ROOT
ATOM      1  O   LIG    1      -10.919  16.567  51.570  0.00  0.00    -0.331 OA
ATOM      2  C   LIG    1      -11.832  17.626  51.849  0.00  0.00    +0.340 C 
ATOM      3  C   LIG    1      -12.916  17.698  50.774  0.00  0.00    +0.214 C 
ATOM      4  C   LIG    1      -13.612  16.348  50.596  0.00  0.00    +0.180 C 
ATOM      5  C   LIG    1      -12.595  15.215  50.459  0.00  0.00    +0.177 C 
ATOM     38  C   LIG    1      -11.550  15.285  51.574  0.00  0.00    +0.179 C 
ENDROOT
BRANCH   5   6
ATOM      6  O   LIG    1      -13.273  13.963  50.528  0.00  0.00    -0.386 OA
ATOM      7  H   LIG    1      -14.132  14.109  50.960  0.00  0.00    +0.210 HD
ENDBRANCH   5   6
BRANCH   4   8
ATOM      8  O   LIG    1      -14.406  16.375  49.408  0.00  0.00    -0.386 OA
ATOM      9  H   LIG    1      -14.699  15.465  49.233  0.00  0.00    +0.210 HD
ENDBRANCH   4   8
BRANCH   3  10
ATOM     10  O   LIG    1      -13.876  18.677  51.170  0.00  0.00    -0.383 OA
ATOM     11  H   LIG    1      -14.241  19.083  50.366  0.00  0.00    +0.210 HD
ENDBRANCH   3  10
BRANCH   2  12
ATOM     12  O   LIG    1      -11.137  18.872  51.856  0.00  0.00    -0.453 OA
BRANCH  12  13
ATOM     13  C   LIG    1      -10.959  19.347  53.137  0.00  0.00    +0.214 A 
ATOM     14  C   LIG    1      -12.000  20.241  53.700  0.00  0.00    +0.238 A 
ATOM     15  C   LIG    1      -11.782  20.708  55.078  0.00  0.00    +0.109 A 
ATOM     16  C   LIG    1      -12.705  21.556  55.698  0.00  0.00    +0.135 A 
ATOM     17  C   LIG    1      -12.475  21.982  57.007  0.00  0.00    +0.091 A 
ATOM     18  C   LIG    1      -11.333  21.564  57.691  0.00  0.00    +0.124 A 
ATOM     19  C   LIG    1      -10.415  20.717  57.069  0.00  0.00    +0.092 A 
ATOM     24  C   LIG    1      -10.642  20.290  55.760  0.00  0.00    +0.147 A 
ATOM     25  O   LIG    1       -9.705  19.459  55.202  0.00  0.00    -0.451 OA
ATOM     26  O   LIG    1      -12.985  20.570  53.054  0.00  0.00    -0.283 OA
ATOM     27  C   LIG    1       -9.897  19.025  53.900  0.00  0.00    +0.181 A 
BRANCH  27  28
ATOM     28  C   LIG    1       -8.821  18.139  53.424  0.00  0.00    +0.025 A 
ATOM     29  C   LIG    1       -8.691  16.854  53.949  0.00  0.00    +0.015 A 
ATOM     30  C   LIG    1       -7.672  16.015  53.498  0.00  0.00    +0.050 A 
ATOM     31  C   LIG    1       -6.781  16.463  52.522  0.00  0.00    +0.158 A 
ATOM     32  C   LIG    1       -6.910  17.748  51.997  0.00  0.00    +0.159 A 
ATOM     37  C   LIG    1       -7.930  18.586  52.448  0.00  0.00    +0.060 A 
BRANCH  32  33
ATOM     33  O   LIG    1       -6.046  18.196  51.042  0.00  0.00    -0.503 OA
ATOM     34  H   LIG    1       -5.980  19.163  51.091  0.00  0.00    +0.292 HD
ENDBRANCH  32  33
BRANCH  31  35
ATOM     35  O   LIG    1       -5.788  15.636  52.091  0.00  0.00    -0.503 OA
ATOM     36  H   LIG    1       -4.924  16.017  52.314  0.00  0.00    +0.292 HD
ENDBRANCH  31  35
ENDBRANCH  27  28
BRANCH  18  20
ATOM     20  O   LIG    1      -11.114  21.982  58.968  0.00  0.00    -0.507 OA
ATOM     21  H   LIG    1      -11.722  22.714  59.169  0.00  0.00    +0.292 HD
ENDBRANCH  18  20
BRANCH  16  22
ATOM     22  O   LIG    1      -13.835  21.992  55.077  0.00  0.00    -0.506 OA
ATOM     23  H   LIG    1      -14.608  21.795  55.633  0.00  0.00    +0.292 HD
ENDBRANCH  16  22
ENDBRANCH  12  13
ENDBRANCH   2  12
BRANCH  38  39
ATOM     39  C   LIG    1      -10.458  14.235  51.393  0.00  0.00    +0.197 C 
BRANCH  39  40
ATOM     40  O   LIG    1      -10.259  14.011  50.004  0.00  0.00    -0.346 OA
BRANCH  40  41
ATOM     41  C   LIG    1       -9.095  14.680  49.530  0.00  0.00    +0.282 C 
ATOM     42  C   LIG    1       -8.322  13.764  48.583  0.00  0.00    +0.201 C 
ATOM     43  C   LIG    1       -9.078  13.579  47.265  0.00  0.00    +0.179 C 
ATOM     44  C   LIG    1       -9.455  14.930  46.657  0.00  0.00    +0.174 C 
ATOM     45  C   LIG    1      -10.181  15.793  47.697  0.00  0.00    +0.149 C 
ATOM     46  C   LIG    1      -10.448  17.206  47.183  0.00  0.00    +0.041 C 
ATOM     53  O   LIG    1       -9.402  15.924  48.891  0.00  0.00    -0.343 OA
BRANCH  44  47
ATOM     47  O   LIG    1      -10.303  14.690  45.536  0.00  0.00    -0.387 OA
ATOM     48  H   LIG    1       -9.934  13.941  45.039  0.00  0.00    +0.210 HD
ENDBRANCH  44  47
BRANCH  43  49
ATOM     49  O   LIG    1       -8.269  12.856  46.339  0.00  0.00    -0.386 OA
ATOM     50  H   LIG    1       -7.429  13.336  46.242  0.00  0.00    +0.210 HD
ENDBRANCH  43  49
BRANCH  42  51
ATOM     51  O   LIG    1       -7.051  14.366  48.335  0.00  0.00    -0.384 OA
ATOM     52  H   LIG    1       -6.924  15.089  48.974  0.00  0.00    +0.210 HD
ENDBRANCH  42  51
ENDBRANCH  40  41
ENDBRANCH  39  40
ENDBRANCH  38  39
TORSDOF 16
ENDMDL
