MODEL 1
REMARK VINA RESULT:      -7.2      0.000      0.000
REMARK  Name = 9823887
REMARK                            x       y       z     vdW  Elec       q    Type
REMARK                         _______ _______ _______ _____ _____    ______ ____
ROOT
ATOM      1  O   LIG    1       16.976 153.757  29.200  0.00  0.00    -0.341 OA
ATOM      2  C   LIG    1       18.373 154.002  29.055  0.00  0.00    +0.282 C 
ATOM      3  C   LIG    1       18.895 153.376  27.761  0.00  0.00    +0.201 C 
ATOM      4  C   LIG    1       18.084 153.840  26.552  0.00  0.00    +0.179 C 
ATOM      5  C   LIG    1       16.584 153.709  26.808  0.00  0.00    +0.177 C 
ATOM     22  C   LIG    1       16.204 154.342  28.149  0.00  0.00    +0.178 C 
ENDROOT
BRANCH   5   6
ATOM      6  O   LIG    1       15.868 154.359  25.761  0.00  0.00    -0.386 OA
ATOM      7  H   LIG    1       15.982 153.835  24.949  0.00  0.00    +0.210 HD
ENDBRANCH   5   6
BRANCH   4   8
ATOM      8  O   LIG    1       18.411 153.030  25.421  0.00  0.00    -0.386 OA
ATOM      9  H   LIG    1       17.789 152.283  25.409  0.00  0.00    +0.210 HD
ENDBRANCH   4   8
BRANCH   3  10
ATOM     10  O   LIG    1       20.258 153.765  27.596  0.00  0.00    -0.384 OA
ATOM     11  H   LIG    1       20.663 153.829  28.477  0.00  0.00    +0.210 HD
ENDBRANCH   3  10
BRANCH   2  12
ATOM     12  O   LIG    1       19.080 153.416  30.146  0.00  0.00    -0.345 OA
BRANCH  12  13
ATOM     13  C   LIG    1       19.276 154.349  31.196  0.00  0.00    +0.190 C 
BRANCH  13  14
ATOM     14  C   LIG    1       20.733 154.671  31.290  0.00  0.00    +0.001 C 
ATOM     15  C   LIG    1       21.320 155.107  32.415  0.00  0.00    +0.006 C 
BRANCH  15  16
ATOM     16  C   LIG    1       22.752 155.422  32.558  0.00  0.00    -0.025 A 
ATOM     17  C   LIG    1       23.371 156.215  31.605  0.00  0.00    +0.008 A 
ATOM     18  C   LIG    1       24.727 156.513  31.742  0.00  0.00    +0.001 A 
ATOM     19  C   LIG    1       25.446 156.015  32.828  0.00  0.00    +0.000 A 
ATOM     20  C   LIG    1       24.809 155.218  33.779  0.00  0.00    +0.001 A 
ATOM     21  C   LIG    1       23.453 154.919  33.643  0.00  0.00    +0.008 A 
ENDBRANCH  15  16
ENDBRANCH  13  14
ENDBRANCH  12  13
ENDBRANCH   2  12
BRANCH  22  23
ATOM     23  C   LIG    1       14.731 154.122  28.482  0.00  0.00    +0.197 C 
BRANCH  23  24
ATOM     24  O   LIG    1       14.001 155.263  28.070  0.00  0.00    -0.346 OA
BRANCH  24  25
ATOM     25  C   LIG    1       14.126 156.334  29.001  0.00  0.00    +0.281 C 
ATOM     26  C   LIG    1       13.628 157.640  28.365  0.00  0.00    +0.201 C 
ATOM     27  C   LIG    1       12.099 157.685  28.261  0.00  0.00    +0.178 C 
ATOM     28  C   LIG    1       11.470 157.307  29.603  0.00  0.00    +0.171 C 
ATOM     29  C   LIG    1       12.032 155.983  30.106  0.00  0.00    +0.197 C 
ATOM     36  O   LIG    1       13.450 156.056  30.232  0.00  0.00    -0.346 OA
BRANCH  28  30
ATOM     30  O   LIG    1       10.058 157.226  29.467  0.00  0.00    -0.387 OA
ATOM     31  H   LIG    1        9.858 157.144  28.519  0.00  0.00    +0.210 HD
ENDBRANCH  28  30
BRANCH  27  32
ATOM     32  O   LIG    1       11.662 156.768  27.260  0.00  0.00    -0.386 OA
ATOM     33  H   LIG    1       11.304 157.290  26.521  0.00  0.00    +0.210 HD
ENDBRANCH  27  32
BRANCH  26  34
ATOM     34  O   LIG    1       14.078 158.724  29.174  0.00  0.00    -0.384 OA
ATOM     35  H   LIG    1       14.289 158.381  30.058  0.00  0.00    +0.210 HD
ENDBRANCH  26  34
ENDBRANCH  24  25
ENDBRANCH  23  24
ENDBRANCH  22  23
TORSDOF 13
ENDMDL
MODEL 2
REMARK VINA RESULT:      -7.2     12.145     14.348
REMARK  Name = 9823887
REMARK                            x       y       z     vdW  Elec       q    Type
REMARK                         _______ _______ _______ _____ _____    ______ ____
ROOT
ATOM      1  O   LIG    1       12.929 143.609  28.446  0.00  0.00    -0.341 OA
ATOM      2  C   LIG    1       14.166 143.244  27.838  0.00  0.00    +0.282 C 
ATOM      3  C   LIG    1       14.874 144.479  27.282  0.00  0.00    +0.201 C 
ATOM      4  C   LIG    1       15.036 145.558  28.352  0.00  0.00    +0.179 C 
ATOM      5  C   LIG    1       13.722 145.807  29.090  0.00  0.00    +0.177 C 
ATOM     22  C   LIG    1       13.102 144.487  29.558  0.00  0.00    +0.178 C 
ENDROOT
BRANCH   5   6
ATOM      6  O   LIG    1       13.965 146.640  30.221  0.00  0.00    -0.386 OA
ATOM      7  H   LIG    1       13.757 146.128  31.021  0.00  0.00    +0.210 HD
ENDBRANCH   5   6
BRANCH   4   8
ATOM      8  O   LIG    1       15.436 146.783  27.737  0.00  0.00    -0.386 OA
ATOM      9  H   LIG    1       15.002 147.507  28.220  0.00  0.00    +0.210 HD
ENDBRANCH   4   8
BRANCH   3  10
ATOM     10  O   LIG    1       16.162 144.082  26.810  0.00  0.00    -0.384 OA
ATOM     11  H   LIG    1       16.242 144.361  25.883  0.00  0.00    +0.210 HD
ENDBRANCH   3  10
BRANCH   2  12
ATOM     12  O   LIG    1       13.925 142.349  26.754  0.00  0.00    -0.345 OA
BRANCH  12  13
ATOM     13  C   LIG    1       13.242 141.183  27.188  0.00  0.00    +0.190 C 
BRANCH  13  14
ATOM     14  C   LIG    1       14.150 140.006  27.031  0.00  0.00    +0.001 C 
ATOM     15  C   LIG    1       13.706 138.752  26.853  0.00  0.00    +0.006 C 
BRANCH  15  16
ATOM     16  C   LIG    1       14.561 137.565  26.679  0.00  0.00    -0.025 A 
ATOM     17  C   LIG    1       15.222 137.037  27.777  0.00  0.00    +0.008 A 
ATOM     18  C   LIG    1       16.031 135.914  27.612  0.00  0.00    +0.001 A 
ATOM     19  C   LIG    1       16.171 135.333  26.352  0.00  0.00    +0.000 A 
ATOM     20  C   LIG    1       15.501 135.876  25.256  0.00  0.00    +0.001 A 
ATOM     21  C   LIG    1       14.691 137.000  25.421  0.00  0.00    +0.008 A 
ENDBRANCH  15  16
ENDBRANCH  13  14
ENDBRANCH  12  13
ENDBRANCH   2  12
BRANCH  22  23
ATOM     23  C   LIG    1       11.732 144.701  30.195  0.00  0.00    +0.197 C 
BRANCH  23  24
ATOM     24  O   LIG    1       10.965 145.533  29.345  0.00  0.00    -0.346 OA
BRANCH  24  25
ATOM     25  C   LIG    1       10.142 146.428  30.086  0.00  0.00    +0.281 C 
ATOM     26  C   LIG    1        9.636 147.553  29.169  0.00  0.00    +0.201 C 
ATOM     27  C   LIG    1        8.540 147.069  28.213  0.00  0.00    +0.178 C 
ATOM     28  C   LIG    1        7.469 146.298  28.987  0.00  0.00    +0.171 C 
ATOM     29  C   LIG    1        8.103 145.200  29.832  0.00  0.00    +0.197 C 
ATOM     36  O   LIG    1        9.060 145.750  30.734  0.00  0.00    -0.346 OA
BRANCH  28  30
ATOM     30  O   LIG    1        6.525 145.744  28.081  0.00  0.00    -0.387 OA
ATOM     31  H   LIG    1        6.882 144.895  27.767  0.00  0.00    +0.210 HD
ENDBRANCH  28  30
BRANCH  27  32
ATOM     32  O   LIG    1        9.113 146.215  27.224  0.00  0.00    -0.386 OA
ATOM     33  H   LIG    1        8.652 146.388  26.385  0.00  0.00    +0.210 HD
ENDBRANCH  27  32
BRANCH  26  34
ATOM     34  O   LIG    1        9.117 148.593  29.994  0.00  0.00    -0.384 OA
ATOM     35  H   LIG    1        8.166 148.682  29.815  0.00  0.00    +0.210 HD
ENDBRANCH  26  34
ENDBRANCH  24  25
ENDBRANCH  23  24
ENDBRANCH  22  23
TORSDOF 13
ENDMDL
MODEL 3
REMARK VINA RESULT:      -7.0      2.157      3.582
REMARK  Name = 9823887
REMARK                            x       y       z     vdW  Elec       q    Type
REMARK                         _______ _______ _______ _____ _____    ______ ____
ROOT
ATOM      1  O   LIG    1       19.152 155.750  28.653  0.00  0.00    -0.341 OA
ATOM      2  C   LIG    1       20.437 155.265  29.035  0.00  0.00    +0.282 C 
ATOM      3  C   LIG    1       21.218 154.793  27.807  0.00  0.00    +0.201 C 
ATOM      4  C   LIG    1       21.291 155.885  26.741  0.00  0.00    +0.179 C 
ATOM      5  C   LIG    1       19.914 156.491  26.474  0.00  0.00    +0.177 C 
ATOM     22  C   LIG    1       19.229 156.883  27.786  0.00  0.00    +0.178 C 
ENDROOT
BRANCH   5   6
ATOM      6  O   LIG    1       20.058 157.648  25.654  0.00  0.00    -0.386 OA
ATOM      7  H   LIG    1       19.732 157.428  24.764  0.00  0.00    +0.210 HD
ENDBRANCH   5   6
BRANCH   4   8
ATOM      8  O   LIG    1       21.770 155.324  25.518  0.00  0.00    -0.386 OA
ATOM      9  H   LIG    1       22.616 154.885  25.711  0.00  0.00    +0.210 HD
ENDBRANCH   4   8
BRANCH   3  10
ATOM     10  O   LIG    1       22.539 154.448  28.224  0.00  0.00    -0.384 OA
ATOM     11  H   LIG    1       22.590 154.560  29.188  0.00  0.00    +0.210 HD
ENDBRANCH   3  10
BRANCH   2  12
ATOM     12  O   LIG    1       20.291 154.154  29.917  0.00  0.00    -0.345 OA
BRANCH  12  13
ATOM     13  C   LIG    1       20.351 154.561  31.275  0.00  0.00    +0.190 C 
BRANCH  13  14
ATOM     14  C   LIG    1       21.786 154.704  31.671  0.00  0.00    +0.001 C 
ATOM     15  C   LIG    1       22.210 155.576  32.599  0.00  0.00    +0.006 C 
BRANCH  15  16
ATOM     16  C   LIG    1       23.609 155.742  33.031  0.00  0.00    -0.025 A 
ATOM     17  C   LIG    1       24.552 156.192  32.121  0.00  0.00    +0.008 A 
ATOM     18  C   LIG    1       25.875 156.350  32.531  0.00  0.00    +0.001 A 
ATOM     19  C   LIG    1       26.239 156.054  33.845  0.00  0.00    +0.000 A 
ATOM     20  C   LIG    1       25.279 155.601  34.749  0.00  0.00    +0.001 A 
ATOM     21  C   LIG    1       23.955 155.444  34.339  0.00  0.00    +0.008 A 
ENDBRANCH  15  16
ENDBRANCH  13  14
ENDBRANCH  12  13
ENDBRANCH   2  12
BRANCH  22  23
ATOM     23  C   LIG    1       17.807 157.383  27.554  0.00  0.00    +0.197 C 
BRANCH  23  24
ATOM     24  O   LIG    1       16.917 156.572  28.299  0.00  0.00    -0.346 OA
BRANCH  24  25
ATOM     25  C   LIG    1       15.923 155.978  27.470  0.00  0.00    +0.281 C 
ATOM     26  C   LIG    1       16.366 154.568  27.052  0.00  0.00    +0.201 C 
ATOM     27  C   LIG    1       16.247 153.562  28.201  0.00  0.00    +0.178 C 
ATOM     28  C   LIG    1       14.868 153.668  28.855  0.00  0.00    +0.171 C 
ATOM     29  C   LIG    1       14.567 155.111  29.242  0.00  0.00    +0.197 C 
ATOM     36  O   LIG    1       14.637 155.962  28.100  0.00  0.00    -0.346 OA
BRANCH  28  30
ATOM     30  O   LIG    1       14.809 152.826  29.997  0.00  0.00    -0.387 OA
ATOM     31  H   LIG    1       14.851 151.905  29.686  0.00  0.00    +0.210 HD
ENDBRANCH  28  30
BRANCH  27  32
ATOM     32  O   LIG    1       17.253 153.831  29.177  0.00  0.00    -0.386 OA
ATOM     33  H   LIG    1       18.114 153.624  28.775  0.00  0.00    +0.210 HD
ENDBRANCH  27  32
BRANCH  26  34
ATOM     34  O   LIG    1       15.537 154.148  25.970  0.00  0.00    -0.384 OA
ATOM     35  H   LIG    1       14.856 154.826  25.824  0.00  0.00    +0.210 HD
ENDBRANCH  26  34
ENDBRANCH  24  25
ENDBRANCH  23  24
ENDBRANCH  22  23
TORSDOF 13
ENDMDL
MODEL 4
REMARK VINA RESULT:      -6.9      6.051      8.021
REMARK  Name = 9823887
REMARK                            x       y       z     vdW  Elec       q    Type
REMARK                         _______ _______ _______ _____ _____    ______ ____
ROOT
ATOM      1  O   LIG    1       20.754 157.922  27.700  0.00  0.00    -0.341 OA
ATOM      2  C   LIG    1       21.404 156.757  28.206  0.00  0.00    +0.282 C 
ATOM      3  C   LIG    1       21.349 155.626  27.179  0.00  0.00    +0.201 C 
ATOM      4  C   LIG    1       21.903 156.073  25.827  0.00  0.00    +0.179 C 
ATOM      5  C   LIG    1       21.298 157.408  25.395  0.00  0.00    +0.177 C 
ATOM     22  C   LIG    1       21.385 158.435  26.526  0.00  0.00    +0.178 C 
ENDROOT
BRANCH   5   6
ATOM      6  O   LIG    1       22.003 157.899  24.257  0.00  0.00    -0.386 OA
ATOM      7  H   LIG    1       21.730 158.821  24.111  0.00  0.00    +0.210 HD
ENDBRANCH   5   6
BRANCH   4   8
ATOM      8  O   LIG    1       21.579 155.099  24.834  0.00  0.00    -0.386 OA
ATOM      9  H   LIG    1       21.128 155.562  24.108  0.00  0.00    +0.210 HD
ENDBRANCH   4   8
BRANCH   3  10
ATOM     10  O   LIG    1       22.127 154.536  27.673  0.00  0.00    -0.384 OA
ATOM     11  H   LIG    1       21.534 153.941  28.163  0.00  0.00    +0.210 HD
ENDBRANCH   3  10
BRANCH   2  12
ATOM     12  O   LIG    1       20.743 156.312  29.389  0.00  0.00    -0.345 OA
BRANCH  12  13
ATOM     13  C   LIG    1       20.762 157.309  30.398  0.00  0.00    +0.190 C 
BRANCH  13  14
ATOM     14  C   LIG    1       22.075 157.249  31.110  0.00  0.00    +0.001 C 
ATOM     15  C   LIG    1       22.508 156.161  31.767  0.00  0.00    +0.006 C 
BRANCH  15  16
ATOM     16  C   LIG    1       23.798 156.051  32.469  0.00  0.00    -0.025 A 
ATOM     17  C   LIG    1       24.964 156.403  31.808  0.00  0.00    +0.008 A 
ATOM     18  C   LIG    1       26.185 156.299  32.474  0.00  0.00    +0.001 A 
ATOM     19  C   LIG    1       26.225 155.843  33.792  0.00  0.00    +0.000 A 
ATOM     20  C   LIG    1       25.043 155.493  34.444  0.00  0.00    +0.001 A 
ATOM     21  C   LIG    1       23.822 155.597  33.778  0.00  0.00    +0.008 A 
ENDBRANCH  15  16
ENDBRANCH  13  14
ENDBRANCH  12  13
ENDBRANCH   2  12
BRANCH  22  23
ATOM     23  C   LIG    1       20.683 159.740  26.160  0.00  0.00    +0.197 C 
BRANCH  23  24
ATOM     24  O   LIG    1       21.606 160.572  25.480  0.00  0.00    -0.346 OA
BRANCH  24  25
ATOM     25  C   LIG    1       21.649 161.880  26.039  0.00  0.00    +0.281 C 
ATOM     26  C   LIG    1       23.071 162.192  26.531  0.00  0.00    +0.201 C 
ATOM     27  C   LIG    1       24.033 162.473  25.372  0.00  0.00    +0.178 C 
ATOM     28  C   LIG    1       23.416 163.490  24.410  0.00  0.00    +0.171 C 
ATOM     29  C   LIG    1       22.022 163.047  23.983  0.00  0.00    +0.197 C 
ATOM     36  O   LIG    1       21.180 162.873  25.120  0.00  0.00    -0.346 OA
BRANCH  28  30
ATOM     30  O   LIG    1       24.254 163.650  23.275  0.00  0.00    -0.387 OA
ATOM     31  H   LIG    1       23.684 163.860  22.515  0.00  0.00    +0.210 HD
ENDBRANCH  28  30
BRANCH  27  32
ATOM     32  O   LIG    1       24.300 161.261  24.669  0.00  0.00    -0.386 OA
ATOM     33  H   LIG    1       24.997 161.449  24.016  0.00  0.00    +0.210 HD
ENDBRANCH  27  32
BRANCH  26  34
ATOM     34  O   LIG    1       23.003 163.337  27.377  0.00  0.00    -0.384 OA
ATOM     35  H   LIG    1       22.322 163.182  28.052  0.00  0.00    +0.210 HD
ENDBRANCH  26  34
ENDBRANCH  24  25
ENDBRANCH  23  24
ENDBRANCH  22  23
TORSDOF 13
ENDMDL
MODEL 5
REMARK VINA RESULT:      -6.8      5.325      6.626
REMARK  Name = 9823887
REMARK                            x       y       z     vdW  Elec       q    Type
REMARK                         _______ _______ _______ _____ _____    ______ ____
ROOT
ATOM      1  O   LIG    1       20.634 157.949  27.521  0.00  0.00    -0.341 OA
ATOM      2  C   LIG    1       21.110 156.742  28.111  0.00  0.00    +0.282 C 
ATOM      3  C   LIG    1       21.149 155.618  27.075  0.00  0.00    +0.201 C 
ATOM      4  C   LIG    1       21.949 156.028  25.839  0.00  0.00    +0.179 C 
ATOM      5  C   LIG    1       21.516 157.402  25.330  0.00  0.00    +0.177 C 
ATOM     22  C   LIG    1       21.483 158.419  26.473  0.00  0.00    +0.178 C 
ENDROOT
BRANCH   5   6
ATOM      6  O   LIG    1       22.431 157.845  24.331  0.00  0.00    -0.386 OA
ATOM      7  H   LIG    1       21.932 157.977  23.506  0.00  0.00    +0.210 HD
ENDBRANCH   5   6
BRANCH   4   8
ATOM      8  O   LIG    1       21.727 155.080  24.793  0.00  0.00    -0.386 OA
ATOM      9  H   LIG    1       22.092 155.458  23.976  0.00  0.00    +0.210 HD
ENDBRANCH   4   8
BRANCH   3  10
ATOM     10  O   LIG    1       21.758 154.476  27.677  0.00  0.00    -0.384 OA
ATOM     11  H   LIG    1       22.652 154.727  27.964  0.00  0.00    +0.210 HD
ENDBRANCH   3  10
BRANCH   2  12
ATOM     12  O   LIG    1       20.234 156.341  29.163  0.00  0.00    -0.345 OA
BRANCH  12  13
ATOM     13  C   LIG    1       20.509 157.047  30.362  0.00  0.00    +0.190 C 
BRANCH  13  14
ATOM     14  C   LIG    1       21.650 156.382  31.062  0.00  0.00    +0.001 C 
ATOM     15  C   LIG    1       22.758 157.033  31.449  0.00  0.00    +0.006 C 
BRANCH  15  16
ATOM     16  C   LIG    1       23.899 156.423  32.153  0.00  0.00    -0.025 A 
ATOM     17  C   LIG    1       25.186 156.679  31.709  0.00  0.00    +0.008 A 
ATOM     18  C   LIG    1       26.266 156.101  32.376  0.00  0.00    +0.001 A 
ATOM     19  C   LIG    1       26.045 155.275  33.477  0.00  0.00    +0.000 A 
ATOM     20  C   LIG    1       24.744 155.026  33.913  0.00  0.00    +0.001 A 
ATOM     21  C   LIG    1       23.664 155.604  33.246  0.00  0.00    +0.008 A 
ENDBRANCH  15  16
ENDBRANCH  13  14
ENDBRANCH  12  13
ENDBRANCH   2  12
BRANCH  22  23
ATOM     23  C   LIG    1       20.943 159.770  26.013  0.00  0.00    +0.197 C 
BRANCH  23  24
ATOM     24  O   LIG    1       19.900 159.544  25.082  0.00  0.00    -0.346 OA
BRANCH  24  25
ATOM     25  C   LIG    1       19.496 160.748  24.440  0.00  0.00    +0.281 C 
ATOM     26  C   LIG    1       20.366 160.997  23.198  0.00  0.00    +0.201 C 
ATOM     27  C   LIG    1       20.001 160.059  22.042  0.00  0.00    +0.178 C 
ATOM     28  C   LIG    1       18.488 160.066  21.816  0.00  0.00    +0.171 C 
ATOM     29  C   LIG    1       17.750 159.783  23.117  0.00  0.00    +0.197 C 
ATOM     36  O   LIG    1       18.101 160.741  24.113  0.00  0.00    -0.346 OA
BRANCH  28  30
ATOM     30  O   LIG    1       18.144 159.102  20.830  0.00  0.00    -0.387 OA
ATOM     31  H   LIG    1       17.180 159.141  20.706  0.00  0.00    +0.210 HD
ENDBRANCH  28  30
BRANCH  27  32
ATOM     32  O   LIG    1       20.426 158.733  22.351  0.00  0.00    -0.386 OA
ATOM     33  H   LIG    1       20.621 158.702  23.303  0.00  0.00    +0.210 HD
ENDBRANCH  27  32
BRANCH  26  34
ATOM     34  O   LIG    1       20.173 162.349  22.788  0.00  0.00    -0.384 OA
ATOM     35  H   LIG    1       19.237 162.577  22.911  0.00  0.00    +0.210 HD
ENDBRANCH  26  34
ENDBRANCH  24  25
ENDBRANCH  23  24
ENDBRANCH  22  23
TORSDOF 13
ENDMDL
MODEL 6
REMARK VINA RESULT:      -6.8      2.415      3.743
REMARK  Name = 9823887
REMARK                            x       y       z     vdW  Elec       q    Type
REMARK                         _______ _______ _______ _____ _____    ______ ____
ROOT
ATOM      1  O   LIG    1       17.253 153.827  29.446  0.00  0.00    -0.341 OA
ATOM      2  C   LIG    1       18.594 154.184  29.121  0.00  0.00    +0.282 C 
ATOM      3  C   LIG    1       19.025 153.514  27.816  0.00  0.00    +0.201 C 
ATOM      4  C   LIG    1       18.043 153.813  26.685  0.00  0.00    +0.179 C 
ATOM      5  C   LIG    1       16.600 153.569  27.125  0.00  0.00    +0.177 C 
ATOM     22  C   LIG    1       16.315 154.263  28.460  0.00  0.00    +0.178 C 
ENDROOT
BRANCH   5   6
ATOM      6  O   LIG    1       15.711 154.074  26.132  0.00  0.00    -0.386 OA
ATOM      7  H   LIG    1       16.222 154.651  25.538  0.00  0.00    +0.210 HD
ENDBRANCH   5   6
BRANCH   4   8
ATOM      8  O   LIG    1       18.317 152.954  25.577  0.00  0.00    -0.386 OA
ATOM      9  H   LIG    1       18.869 152.224  25.904  0.00  0.00    +0.210 HD
ENDBRANCH   4   8
BRANCH   3  10
ATOM     10  O   LIG    1       20.318 154.008  27.465  0.00  0.00    -0.384 OA
ATOM     11  H   LIG    1       20.944 153.731  28.155  0.00  0.00    +0.210 HD
ENDBRANCH   3  10
BRANCH   2  12
ATOM     12  O   LIG    1       19.474 153.745  30.154  0.00  0.00    -0.345 OA
BRANCH  12  13
ATOM     13  C   LIG    1       19.611 154.727  31.168  0.00  0.00    +0.190 C 
BRANCH  13  14
ATOM     14  C   LIG    1       21.064 155.016  31.365  0.00  0.00    +0.001 C 
ATOM     15  C   LIG    1       21.609 155.276  32.564  0.00  0.00    +0.006 C 
BRANCH  15  16
ATOM     16  C   LIG    1       23.035 155.552  32.807  0.00  0.00    -0.025 A 
ATOM     17  C   LIG    1       23.599 155.191  34.020  0.00  0.00    +0.008 A 
ATOM     18  C   LIG    1       24.950 155.453  34.250  0.00  0.00    +0.001 A 
ATOM     19  C   LIG    1       25.718 156.072  33.265  0.00  0.00    +0.000 A 
ATOM     20  C   LIG    1       25.137 156.430  32.049  0.00  0.00    +0.001 A 
ATOM     21  C   LIG    1       23.786 156.168  31.819  0.00  0.00    +0.008 A 
ENDBRANCH  15  16
ENDBRANCH  13  14
ENDBRANCH  12  13
ENDBRANCH   2  12
BRANCH  22  23
ATOM     23  C   LIG    1       14.917 153.938  28.979  0.00  0.00    +0.197 C 
BRANCH  23  24
ATOM     24  O   LIG    1       15.012 152.848  29.878  0.00  0.00    -0.346 OA
BRANCH  24  25
ATOM     25  C   LIG    1       14.164 153.021  31.008  0.00  0.00    +0.281 C 
ATOM     26  C   LIG    1       14.635 152.118  32.159  0.00  0.00    +0.201 C 
ATOM     27  C   LIG    1       15.911 152.648  32.822  0.00  0.00    +0.178 C 
ATOM     28  C   LIG    1       15.753 154.133  33.154  0.00  0.00    +0.171 C 
ATOM     29  C   LIG    1       15.308 154.914  31.924  0.00  0.00    +0.197 C 
ATOM     36  O   LIG    1       14.083 154.392  31.414  0.00  0.00    -0.346 OA
BRANCH  28  30
ATOM     30  O   LIG    1       16.980 154.649  33.651  0.00  0.00    -0.387 OA
ATOM     31  H   LIG    1       17.666 153.977  33.496  0.00  0.00    +0.210 HD
ENDBRANCH  28  30
BRANCH  27  32
ATOM     32  O   LIG    1       17.016 152.478  31.937  0.00  0.00    -0.386 OA
ATOM     33  H   LIG    1       16.673 152.523  31.028  0.00  0.00    +0.210 HD
ENDBRANCH  27  32
BRANCH  26  34
ATOM     34  O   LIG    1       13.591 152.055  33.126  0.00  0.00    -0.384 OA
ATOM     35  H   LIG    1       12.933 151.405  32.828  0.00  0.00    +0.210 HD
ENDBRANCH  26  34
ENDBRANCH  24  25
ENDBRANCH  23  24
ENDBRANCH  22  23
TORSDOF 13
ENDMDL
MODEL 7
REMARK VINA RESULT:      -6.8     17.973     21.191
REMARK  Name = 9823887
REMARK                            x       y       z     vdW  Elec       q    Type
REMARK                         _______ _______ _______ _____ _____    ______ ____
ROOT
ATOM      1  O   LIG    1       14.870 164.709  13.524  0.00  0.00    -0.341 OA
ATOM      2  C   LIG    1       14.284 164.993  12.255  0.00  0.00    +0.282 C 
ATOM      3  C   LIG    1       13.810 163.703  11.584  0.00  0.00    +0.201 C 
ATOM      4  C   LIG    1       12.881 162.908  12.501  0.00  0.00    +0.179 C 
ATOM      5  C   LIG    1       13.476 162.762  13.901  0.00  0.00    +0.177 C 
ATOM     22  C   LIG    1       13.943 164.118  14.436  0.00  0.00    +0.178 C 
ENDROOT
BRANCH   5   6
ATOM      6  O   LIG    1       12.491 162.223  14.779  0.00  0.00    -0.386 OA
ATOM      7  H   LIG    1       11.685 162.056  14.259  0.00  0.00    +0.210 HD
ENDBRANCH   5   6
BRANCH   4   8
ATOM      8  O   LIG    1       12.690 161.597  11.964  0.00  0.00    -0.386 OA
ATOM      9  H   LIG    1       12.970 160.961  12.644  0.00  0.00    +0.210 HD
ENDBRANCH   4   8
BRANCH   3  10
ATOM     10  O   LIG    1       13.112 164.051  10.389  0.00  0.00    -0.384 OA
ATOM     11  H   LIG    1       12.172 164.162  10.610  0.00  0.00    +0.210 HD
ENDBRANCH   3  10
BRANCH   2  12
ATOM     12  O   LIG    1       15.251 165.603  11.403  0.00  0.00    -0.345 OA
BRANCH  12  13
ATOM     13  C   LIG    1       14.883 166.932  11.072  0.00  0.00    +0.190 C 
BRANCH  13  14
ATOM     14  C   LIG    1       14.985 167.106   9.591  0.00  0.00    +0.001 C 
ATOM     15  C   LIG    1       16.115 167.477   8.969  0.00  0.00    +0.006 C 
BRANCH  15  16
ATOM     16  C   LIG    1       16.266 167.647   7.513  0.00  0.00    -0.025 A 
ATOM     17  C   LIG    1       16.757 168.844   7.016  0.00  0.00    +0.008 A 
ATOM     18  C   LIG    1       16.900 169.003   5.639  0.00  0.00    +0.001 A 
ATOM     19  C   LIG    1       16.550 167.966   4.775  0.00  0.00    +0.000 A 
ATOM     20  C   LIG    1       16.057 166.767   5.289  0.00  0.00    +0.001 A 
ATOM     21  C   LIG    1       15.914 166.607   6.668  0.00  0.00    +0.008 A 
ENDBRANCH  15  16
ENDBRANCH  13  14
ENDBRANCH  12  13
ENDBRANCH   2  12
BRANCH  22  23
ATOM     23  C   LIG    1       14.647 163.982  15.784  0.00  0.00    +0.197 C 
BRANCH  23  24
ATOM     24  O   LIG    1       15.936 163.440  15.566  0.00  0.00    -0.346 OA
BRANCH  24  25
ATOM     25  C   LIG    1       16.956 164.420  15.730  0.00  0.00    +0.281 C 
ATOM     26  C   LIG    1       17.056 164.827  17.208  0.00  0.00    +0.201 C 
ATOM     27  C   LIG    1       17.726 163.744  18.060  0.00  0.00    +0.178 C 
ATOM     28  C   LIG    1       19.026 163.283  17.399  0.00  0.00    +0.171 C 
ATOM     29  C   LIG    1       18.780 162.886  15.949  0.00  0.00    +0.197 C 
ATOM     36  O   LIG    1       18.217 163.974  15.220  0.00  0.00    -0.346 OA
BRANCH  28  30
ATOM     30  O   LIG    1       19.576 162.192  18.125  0.00  0.00    -0.387 OA
ATOM     31  H   LIG    1       20.243 162.552  18.735  0.00  0.00    +0.210 HD
ENDBRANCH  28  30
BRANCH  27  32
ATOM     32  O   LIG    1       16.845 162.629  18.195  0.00  0.00    -0.386 OA
ATOM     33  H   LIG    1       16.269 162.802  18.959  0.00  0.00    +0.210 HD
ENDBRANCH  27  32
BRANCH  26  34
ATOM     34  O   LIG    1       17.822 166.027  17.284  0.00  0.00    -0.384 OA
ATOM     35  H   LIG    1       17.832 166.442  16.405  0.00  0.00    +0.210 HD
ENDBRANCH  26  34
ENDBRANCH  24  25
ENDBRANCH  23  24
ENDBRANCH  22  23
TORSDOF 13
ENDMDL
MODEL 8
REMARK VINA RESULT:      -6.7      3.031      4.649
REMARK  Name = 9823887
REMARK                            x       y       z     vdW  Elec       q    Type
REMARK                         _______ _______ _______ _____ _____    ______ ____
ROOT
ATOM      1  O   LIG    1       18.695 155.130  28.619  0.00  0.00    -0.341 OA
ATOM      2  C   LIG    1       19.740 155.594  27.767  0.00  0.00    +0.282 C 
ATOM      3  C   LIG    1       19.840 154.719  26.517  0.00  0.00    +0.201 C 
ATOM      4  C   LIG    1       18.494 154.615  25.801  0.00  0.00    +0.179 C 
ATOM      5  C   LIG    1       17.371 154.272  26.779  0.00  0.00    +0.177 C 
ATOM     22  C   LIG    1       17.410 155.197  27.998  0.00  0.00    +0.178 C 
ENDROOT
BRANCH   5   6
ATOM      6  O   LIG    1       16.114 154.411  26.122  0.00  0.00    -0.386 OA
ATOM      7  H   LIG    1       16.252 154.944  25.320  0.00  0.00    +0.210 HD
ENDBRANCH   5   6
BRANCH   4   8
ATOM      8  O   LIG    1       18.556 153.579  24.819  0.00  0.00    -0.386 OA
ATOM      9  H   LIG    1       19.493 153.348  24.700  0.00  0.00    +0.210 HD
ENDBRANCH   4   8
BRANCH   3  10
ATOM     10  O   LIG    1       20.801 155.302  25.639  0.00  0.00    -0.384 OA
ATOM     11  H   LIG    1       21.023 154.646  24.957  0.00  0.00    +0.210 HD
ENDBRANCH   3  10
BRANCH   2  12
ATOM     12  O   LIG    1       20.988 155.526  28.454  0.00  0.00    -0.345 OA
BRANCH  12  13
ATOM     13  C   LIG    1       21.066 156.501  29.482  0.00  0.00    +0.190 C 
BRANCH  13  14
ATOM     14  C   LIG    1       22.011 156.017  30.534  0.00  0.00    +0.001 C 
ATOM     15  C   LIG    1       22.980 156.780  31.063  0.00  0.00    +0.006 C 
BRANCH  15  16
ATOM     16  C   LIG    1       23.922 156.351  32.110  0.00  0.00    -0.025 A 
ATOM     17  C   LIG    1       25.284 156.505  31.903  0.00  0.00    +0.008 A 
ATOM     18  C   LIG    1       26.176 156.099  32.895  0.00  0.00    +0.001 A 
ATOM     19  C   LIG    1       25.696 155.543  34.080  0.00  0.00    +0.000 A 
ATOM     20  C   LIG    1       24.323 155.394  34.275  0.00  0.00    +0.001 A 
ATOM     21  C   LIG    1       23.430 155.801  33.283  0.00  0.00    +0.008 A 
ENDBRANCH  15  16
ENDBRANCH  13  14
ENDBRANCH  12  13
ENDBRANCH   2  12
BRANCH  22  23
ATOM     23  C   LIG    1       16.372 154.800  29.043  0.00  0.00    +0.197 C 
BRANCH  23  24
ATOM     24  O   LIG    1       16.982 153.924  29.974  0.00  0.00    -0.346 OA
BRANCH  24  25
ATOM     25  C   LIG    1       16.578 154.208  31.309  0.00  0.00    +0.281 C 
ATOM     26  C   LIG    1       16.865 152.997  32.211  0.00  0.00    +0.201 C 
ATOM     27  C   LIG    1       18.359 152.847  32.515  0.00  0.00    +0.178 C 
ATOM     28  C   LIG    1       18.940 154.184  32.979  0.00  0.00    +0.171 C 
ATOM     29  C   LIG    1       18.604 155.289  31.985  0.00  0.00    +0.197 C 
ATOM     36  O   LIG    1       17.193 155.398  31.814  0.00  0.00    -0.346 OA
BRANCH  28  30
ATOM     30  O   LIG    1       20.347 154.070  33.137  0.00  0.00    -0.387 OA
ATOM     31  H   LIG    1       20.760 154.774  32.607  0.00  0.00    +0.210 HD
ENDBRANCH  28  30
BRANCH  27  32
ATOM     32  O   LIG    1       19.045 152.418  31.340  0.00  0.00    -0.386 OA
ATOM     33  H   LIG    1       18.959 153.124  30.677  0.00  0.00    +0.210 HD
ENDBRANCH  27  32
BRANCH  26  34
ATOM     34  O   LIG    1       16.151 153.177  33.431  0.00  0.00    -0.384 OA
ATOM     35  H   LIG    1       16.006 154.129  33.565  0.00  0.00    +0.210 HD
ENDBRANCH  26  34
ENDBRANCH  24  25
ENDBRANCH  23  24
ENDBRANCH  22  23
TORSDOF 13
ENDMDL
MODEL 9
REMARK VINA RESULT:      -6.7     24.494     25.644
REMARK  Name = 9823887
REMARK                            x       y       z     vdW  Elec       q    Type
REMARK                         _______ _______ _______ _____ _____    ______ ____
ROOT
ATOM      1  O   LIG    1       23.633 139.699  10.357  0.00  0.00    -0.341 OA
ATOM      2  C   LIG    1       23.637 138.282  10.516  0.00  0.00    +0.282 C 
ATOM      3  C   LIG    1       22.274 137.795  11.011  0.00  0.00    +0.201 C 
ATOM      4  C   LIG    1       21.145 138.287  10.106  0.00  0.00    +0.179 C 
ATOM      5  C   LIG    1       21.269 139.785   9.830  0.00  0.00    +0.177 C 
ATOM     22  C   LIG    1       22.689 140.139   9.381  0.00  0.00    +0.178 C 
ENDROOT
BRANCH   5   6
ATOM      6  O   LIG    1       20.345 140.155   8.810  0.00  0.00    -0.386 OA
ATOM      7  H   LIG    1       19.871 140.950   9.109  0.00  0.00    +0.210 HD
ENDBRANCH   5   6
BRANCH   4   8
ATOM      8  O   LIG    1       19.889 138.058  10.746  0.00  0.00    -0.386 OA
ATOM      9  H   LIG    1       20.042 138.086  11.706  0.00  0.00    +0.210 HD
ENDBRANCH   4   8
BRANCH   3  10
ATOM     10  O   LIG    1       22.286 136.368  11.022  0.00  0.00    -0.384 OA
ATOM     11  H   LIG    1       23.155 136.077  11.346  0.00  0.00    +0.210 HD
ENDBRANCH   3  10
BRANCH   2  12
ATOM     12  O   LIG    1       24.616 137.907  11.483  0.00  0.00    -0.345 OA
BRANCH  12  13
ATOM     13  C   LIG    1       24.406 138.574  12.717  0.00  0.00    +0.190 C 
BRANCH  13  14
ATOM     14  C   LIG    1       25.572 139.470  12.985  0.00  0.00    +0.001 C 
ATOM     15  C   LIG    1       26.847 139.050  12.958  0.00  0.00    +0.006 C 
BRANCH  15  16
ATOM     16  C   LIG    1       28.026 139.898  13.201  0.00  0.00    -0.025 A 
ATOM     17  C   LIG    1       27.869 141.273  13.283  0.00  0.00    +0.008 A 
ATOM     18  C   LIG    1       28.986 142.075  13.513  0.00  0.00    +0.001 A 
ATOM     19  C   LIG    1       30.246 141.494  13.656  0.00  0.00    +0.000 A 
ATOM     20  C   LIG    1       30.389 140.109  13.570  0.00  0.00    +0.001 A 
ATOM     21  C   LIG    1       29.271 139.306  13.341  0.00  0.00    +0.008 A 
ENDBRANCH  15  16
ENDBRANCH  13  14
ENDBRANCH  12  13
ENDBRANCH   2  12
BRANCH  22  23
ATOM     23  C   LIG    1       22.869 141.645   9.211  0.00  0.00    +0.197 C 
BRANCH  23  24
ATOM     24  O   LIG    1       22.336 142.023   7.955  0.00  0.00    -0.346 OA
BRANCH  24  25
ATOM     25  C   LIG    1       23.328 142.602   7.114  0.00  0.00    +0.281 C 
ATOM     26  C   LIG    1       22.982 142.339   5.640  0.00  0.00    +0.201 C 
ATOM     27  C   LIG    1       21.820 143.213   5.156  0.00  0.00    +0.178 C 
ATOM     28  C   LIG    1       22.065 144.673   5.539  0.00  0.00    +0.171 C 
ATOM     29  C   LIG    1       22.371 144.794   7.026  0.00  0.00    +0.197 C 
ATOM     36  O   LIG    1       23.503 144.000   7.372  0.00  0.00    -0.346 OA
BRANCH  28  30
ATOM     30  O   LIG    1       20.929 145.457   5.201  0.00  0.00    -0.387 OA
ATOM     31  H   LIG    1       20.258 145.315   5.891  0.00  0.00    +0.210 HD
ENDBRANCH  28  30
BRANCH  27  32
ATOM     32  O   LIG    1       20.605 142.766   5.754  0.00  0.00    -0.386 OA
ATOM     33  H   LIG    1       20.749 141.855   6.063  0.00  0.00    +0.210 HD
ENDBRANCH  27  32
BRANCH  26  34
ATOM     34  O   LIG    1       24.141 142.619   4.858  0.00  0.00    -0.384 OA
ATOM     35  H   LIG    1       24.330 141.846   4.301  0.00  0.00    +0.210 HD
ENDBRANCH  26  34
ENDBRANCH  24  25
ENDBRANCH  23  24
ENDBRANCH  22  23
TORSDOF 13
ENDMDL
