MODEL 1
REMARK VINA RESULT:      -8.0      0.000      0.000
REMARK  Name = 5280637
REMARK                            x       y       z     vdW  Elec       q    Type
REMARK                         _______ _______ _______ _____ _____    ______ ____
ROOT
ATOM     13  C   LIG    1       13.536 165.481  13.104  0.00  0.00    +0.131 A 
ATOM     14  C   LIG    1       12.631 164.551  13.615  0.00  0.00    +0.092 A 
ATOM     15  C   LIG    1       12.870 163.943  14.847  0.00  0.00    +0.135 A 
ATOM     16  C   LIG    1       14.022 164.272  15.565  0.00  0.00    +0.105 A 
ATOM     17  C   LIG    1       14.303 163.647  16.867  0.00  0.00    +0.197 A 
ATOM     18  C   LIG    1       15.549 164.070  17.539  0.00  0.00    +0.098 A 
ATOM     19  C   LIG    1       16.338 164.980  16.948  0.00  0.00    +0.139 A 
ATOM     30  O   LIG    1       16.075 165.562  15.717  0.00  0.00    -0.454 OA
ATOM     31  O   LIG    1       13.554 162.822  17.371  0.00  0.00    -0.287 OA
ATOM     32  C   LIG    1       14.928 165.202  15.056  0.00  0.00    +0.146 A 
ATOM     35  C   LIG    1       14.687 165.807  13.823  0.00  0.00    +0.093 A 
ENDROOT
BRANCH  19  20
ATOM     20  C   LIG    1       17.600 165.435  17.569  0.00  0.00    +0.021 A 
ATOM     21  C   LIG    1       18.607 164.514  17.864  0.00  0.00    +0.015 A 
ATOM     22  C   LIG    1       19.798 164.943  18.451  0.00  0.00    +0.050 A 
ATOM     23  C   LIG    1       19.984 166.294  18.744  0.00  0.00    +0.158 A 
ATOM     24  C   LIG    1       18.978 167.216  18.451  0.00  0.00    +0.159 A 
ATOM     29  C   LIG    1       17.788 166.787  17.864  0.00  0.00    +0.060 A 
BRANCH  24  25
ATOM     25  O   LIG    1       19.151 168.538  18.731  0.00  0.00    -0.503 OA
ATOM     26  H   LIG    1       19.958 168.635  19.264  0.00  0.00    +0.292 HD
ENDBRANCH  24  25
BRANCH  23  27
ATOM     27  O   LIG    1       21.150 166.700  19.318  0.00  0.00    -0.503 OA
ATOM     28  H   LIG    1       21.130 167.667  19.427  0.00  0.00    +0.292 HD
ENDBRANCH  23  27
ENDBRANCH  19  20
BRANCH  15  33
ATOM     33  O   LIG    1       11.956 163.041  15.302  0.00  0.00    -0.506 OA
ATOM     34  H   LIG    1       11.303 163.476  15.871  0.00  0.00    +0.292 HD
ENDBRANCH  15  33
BRANCH  13  12
ATOM     12  O   LIG    1       13.298 166.072  11.897  0.00  0.00    -0.461 OA
BRANCH  12   2
ATOM      1  O   LIG    1       14.815 167.047  10.417  0.00  0.00    -0.331 OA
ATOM      2  C   LIG    1       14.248 165.818  10.863  0.00  0.00    +0.339 C 
ATOM      3  C   LIG    1       13.518 165.117   9.717  0.00  0.00    +0.214 C 
ATOM      4  C   LIG    1       14.430 164.942   8.502  0.00  0.00    +0.180 C 
ATOM      5  C   LIG    1       15.145 166.247   8.153  0.00  0.00    +0.177 C 
ATOM     36  C   LIG    1       15.796 166.859   9.396  0.00  0.00    +0.179 C 
BRANCH   5   6
ATOM      6  O   LIG    1       16.147 165.989   7.174  0.00  0.00    -0.386 OA
ATOM      7  H   LIG    1       15.888 166.440   6.353  0.00  0.00    +0.210 HD
ENDBRANCH   5   6
BRANCH   4   8
ATOM      8  O   LIG    1       13.647 164.549   7.373  0.00  0.00    -0.386 OA
ATOM      9  H   LIG    1       13.971 163.678   7.084  0.00  0.00    +0.210 HD
ENDBRANCH   4   8
BRANCH   3  10
ATOM     10  O   LIG    1       13.089 163.836  10.176  0.00  0.00    -0.383 OA
ATOM     11  H   LIG    1       13.455 163.163   9.577  0.00  0.00    +0.210 HD
ENDBRANCH   3  10
BRANCH  36  37
ATOM     37  C   LIG    1       16.415 168.221   9.096  0.00  0.00    +0.190 C 
BRANCH  37  38
ATOM     38  O   LIG    1       17.809 168.052   8.916  0.00  0.00    -0.392 OA
ATOM     39  H   LIG    1       18.233 168.913   9.073  0.00  0.00    +0.210 HD
ENDBRANCH  37  38
ENDBRANCH  36  37
ENDBRANCH  12   2
ENDBRANCH  13  12
TORSDOF 11
ENDMDL
MODEL 2
REMARK VINA RESULT:      -7.9      1.769      8.870
REMARK  Name = 5280637
REMARK                            x       y       z     vdW  Elec       q    Type
REMARK                         _______ _______ _______ _____ _____    ______ ____
ROOT
ATOM     13  C   LIG    1       16.832 163.680  16.776  0.00  0.00    +0.131 A 
ATOM     14  C   LIG    1       15.653 163.454  17.486  0.00  0.00    +0.092 A 
ATOM     15  C   LIG    1       14.419 163.536  16.840  0.00  0.00    +0.135 A 
ATOM     16  C   LIG    1       14.372 163.847  15.479  0.00  0.00    +0.105 A 
ATOM     17  C   LIG    1       13.087 163.942  14.771  0.00  0.00    +0.197 A 
ATOM     18  C   LIG    1       13.156 164.274  13.334  0.00  0.00    +0.098 A 
ATOM     19  C   LIG    1       14.355 164.464  12.760  0.00  0.00    +0.139 A 
ATOM     30  O   LIG    1       15.565 164.381  13.431  0.00  0.00    -0.454 OA
ATOM     31  O   LIG    1       12.016 163.759  15.334  0.00  0.00    -0.287 OA
ATOM     32  C   LIG    1       15.551 164.073  14.768  0.00  0.00    +0.146 A 
ATOM     35  C   LIG    1       16.783 163.990  15.416  0.00  0.00    +0.093 A 
ENDROOT
BRANCH  19  20
ATOM     20  C   LIG    1       14.485 164.807  11.328  0.00  0.00    +0.021 A 
ATOM     21  C   LIG    1       13.406 164.621  10.462  0.00  0.00    +0.015 A 
ATOM     22  C   LIG    1       13.530 164.943   9.111  0.00  0.00    +0.050 A 
ATOM     23  C   LIG    1       14.733 165.453   8.622  0.00  0.00    +0.158 A 
ATOM     24  C   LIG    1       15.813 165.639   9.486  0.00  0.00    +0.159 A 
ATOM     29  C   LIG    1       15.689 165.316  10.837  0.00  0.00    +0.060 A 
BRANCH  24  25
ATOM     25  O   LIG    1       16.992 166.138   9.019  0.00  0.00    -0.503 OA
ATOM     26  H   LIG    1       17.376 165.491   8.404  0.00  0.00    +0.292 HD
ENDBRANCH  24  25
BRANCH  23  27
ATOM     27  O   LIG    1       14.841 165.763   7.300  0.00  0.00    -0.503 OA
ATOM     28  H   LIG    1       15.681 166.231   7.152  0.00  0.00    +0.292 HD
ENDBRANCH  23  27
ENDBRANCH  19  20
BRANCH  15  33
ATOM     33  O   LIG    1       13.297 163.307  17.578  0.00  0.00    -0.506 OA
ATOM     34  H   LIG    1       12.747 164.104  17.618  0.00  0.00    +0.292 HD
ENDBRANCH  15  33
BRANCH  13  12
ATOM     12  O   LIG    1       18.036 163.599  17.412  0.00  0.00    -0.461 OA
BRANCH  12   2
ATOM      1  O   LIG    1       18.812 165.728  17.968  0.00  0.00    -0.331 OA
ATOM      2  C   LIG    1       18.257 164.519  18.480  0.00  0.00    +0.339 C 
ATOM      3  C   LIG    1       19.219 163.865  19.472  0.00  0.00    +0.214 C 
ATOM      4  C   LIG    1       19.629 164.842  20.575  0.00  0.00    +0.180 C 
ATOM      5  C   LIG    1       20.067 166.185  19.990  0.00  0.00    +0.177 C 
ATOM     36  C   LIG    1       19.034 166.704  18.987  0.00  0.00    +0.179 C 
BRANCH   5   6
ATOM      6  O   LIG    1       20.218 167.132  21.045  0.00  0.00    -0.386 OA
ATOM      7  H   LIG    1       20.034 166.677  21.885  0.00  0.00    +0.210 HD
ENDBRANCH   5   6
BRANCH   4   8
ATOM      8  O   LIG    1       20.729 164.298  21.307  0.00  0.00    -0.386 OA
ATOM      9  H   LIG    1       20.489 164.319  22.250  0.00  0.00    +0.210 HD
ENDBRANCH   4   8
BRANCH   3  10
ATOM     10  O   LIG    1       18.565 162.740  20.056  0.00  0.00    -0.383 OA
ATOM     11  H   LIG    1       19.096 161.948  19.862  0.00  0.00    +0.210 HD
ENDBRANCH   3  10
BRANCH  36  37
ATOM     37  C   LIG    1       19.505 167.984  18.304  0.00  0.00    +0.190 C 
BRANCH  37  38
ATOM     38  O   LIG    1       20.858 167.819  17.922  0.00  0.00    -0.392 OA
ATOM     39  H   LIG    1       21.179 166.991  18.319  0.00  0.00    +0.210 HD
ENDBRANCH  37  38
ENDBRANCH  36  37
ENDBRANCH  12   2
ENDBRANCH  13  12
TORSDOF 11
ENDMDL
MODEL 3
REMARK VINA RESULT:      -7.9      2.438      8.185
REMARK  Name = 5280637
REMARK                            x       y       z     vdW  Elec       q    Type
REMARK                         _______ _______ _______ _____ _____    ______ ____
ROOT
ATOM     13  C   LIG    1       13.351 164.835  16.087  0.00  0.00    +0.131 A 
ATOM     14  C   LIG    1       12.932 163.595  15.605  0.00  0.00    +0.092 A 
ATOM     15  C   LIG    1       12.960 163.329  14.235  0.00  0.00    +0.135 A 
ATOM     16  C   LIG    1       13.409 164.313  13.351  0.00  0.00    +0.105 A 
ATOM     17  C   LIG    1       13.448 164.063  11.903  0.00  0.00    +0.197 A 
ATOM     18  C   LIG    1       13.943 165.172  11.062  0.00  0.00    +0.098 A 
ATOM     19  C   LIG    1       14.324 166.319  11.645  0.00  0.00    +0.139 A 
ATOM     30  O   LIG    1       14.279 166.555  13.010  0.00  0.00    -0.454 OA
ATOM     31  O   LIG    1       13.093 163.000  11.413  0.00  0.00    -0.287 OA
ATOM     32  C   LIG    1       13.829 165.552  13.832  0.00  0.00    +0.146 A 
ATOM     35  C   LIG    1       13.800 165.816  15.201  0.00  0.00    +0.093 A 
ENDROOT
BRANCH  19  20
ATOM     20  C   LIG    1       14.819 167.466  10.855  0.00  0.00    +0.021 A 
ATOM     21  C   LIG    1       14.072 168.643  10.784  0.00  0.00    +0.015 A 
ATOM     22  C   LIG    1       14.538 169.724  10.037  0.00  0.00    +0.050 A 
ATOM     23  C   LIG    1       15.754 169.631   9.359  0.00  0.00    +0.158 A 
ATOM     24  C   LIG    1       16.502 168.456   9.427  0.00  0.00    +0.159 A 
ATOM     29  C   LIG    1       16.035 167.374  10.174  0.00  0.00    +0.060 A 
BRANCH  24  25
ATOM     25  O   LIG    1       17.691 168.355   8.770  0.00  0.00    -0.503 OA
ATOM     26  H   LIG    1       17.604 167.673   8.082  0.00  0.00    +0.292 HD
ENDBRANCH  24  25
BRANCH  23  27
ATOM     27  O   LIG    1       16.198 170.694   8.632  0.00  0.00    -0.503 OA
ATOM     28  H   LIG    1       15.494 171.364   8.587  0.00  0.00    +0.292 HD
ENDBRANCH  23  27
ENDBRANCH  19  20
BRANCH  15  33
ATOM     33  O   LIG    1       12.540 162.103  13.815  0.00  0.00    -0.506 OA
ATOM     34  H   LIG    1       13.275 161.606  13.427  0.00  0.00    +0.292 HD
ENDBRANCH  15  33
BRANCH  13  12
ATOM     12  O   LIG    1       13.322 165.090  17.427  0.00  0.00    -0.461 OA
BRANCH  12   2
ATOM      1  O   LIG    1       15.566 164.468  17.296  0.00  0.00    -0.331 OA
ATOM      2  C   LIG    1       14.469 164.694  18.177  0.00  0.00    +0.339 C 
ATOM      3  C   LIG    1       14.116 163.413  18.934  0.00  0.00    +0.214 C 
ATOM      4  C   LIG    1       15.339 162.835  19.648  0.00  0.00    +0.180 C 
ATOM      5  C   LIG    1       16.543 162.758  18.709  0.00  0.00    +0.177 C 
ATOM     36  C   LIG    1       16.757 164.092  17.990  0.00  0.00    +0.179 C 
BRANCH   5   6
ATOM      6  O   LIG    1       17.709 162.436  19.463  0.00  0.00    -0.386 OA
ATOM      7  H   LIG    1       18.468 162.434  18.856  0.00  0.00    +0.210 HD
ENDBRANCH   5   6
BRANCH   4   8
ATOM      8  O   LIG    1       15.044 161.512  20.099  0.00  0.00    -0.386 OA
ATOM      9  H   LIG    1       14.099 161.352  19.932  0.00  0.00    +0.210 HD
ENDBRANCH   4   8
BRANCH   3  10
ATOM     10  O   LIG    1       13.109 163.724  19.896  0.00  0.00    -0.383 OA
ATOM     11  H   LIG    1       12.463 164.317  19.475  0.00  0.00    +0.210 HD
ENDBRANCH   3  10
BRANCH  36  37
ATOM     37  C   LIG    1       17.881 164.004  16.961  0.00  0.00    +0.190 C 
BRANCH  37  38
ATOM     38  O   LIG    1       18.082 162.642  16.629  0.00  0.00    -0.392 OA
ATOM     39  H   LIG    1       18.552 162.223  17.370  0.00  0.00    +0.210 HD
ENDBRANCH  37  38
ENDBRANCH  36  37
ENDBRANCH  12   2
ENDBRANCH  13  12
TORSDOF 11
ENDMDL
MODEL 4
REMARK VINA RESULT:      -7.7      4.096      8.190
REMARK  Name = 5280637
REMARK                            x       y       z     vdW  Elec       q    Type
REMARK                         _______ _______ _______ _____ _____    ______ ____
ROOT
ATOM     13  C   LIG    1       18.763 165.509  18.227  0.00  0.00    +0.131 A 
ATOM     14  C   LIG    1       18.269 166.810  18.124  0.00  0.00    +0.092 A 
ATOM     15  C   LIG    1       18.825 167.834  18.893  0.00  0.00    +0.135 A 
ATOM     16  C   LIG    1       19.878 167.547  19.765  0.00  0.00    +0.105 A 
ATOM     17  C   LIG    1       20.483 168.604  20.588  0.00  0.00    +0.197 A 
ATOM     18  C   LIG    1       21.591 168.188  21.473  0.00  0.00    +0.098 A 
ATOM     19  C   LIG    1       21.982 166.904  21.479  0.00  0.00    +0.139 A 
ATOM     30  O   LIG    1       21.404 165.908  20.707  0.00  0.00    -0.454 OA
ATOM     31  O   LIG    1       20.097 169.764  20.550  0.00  0.00    -0.287 OA
ATOM     32  C   LIG    1       20.373 166.247  19.867  0.00  0.00    +0.146 A 
ATOM     35  C   LIG    1       19.815 165.226  19.099  0.00  0.00    +0.093 A 
ENDROOT
BRANCH  19  20
ATOM     20  C   LIG    1       23.078 166.429  22.348  0.00  0.00    +0.021 A 
ATOM     21  C   LIG    1       23.463 165.087  22.321  0.00  0.00    +0.015 A 
ATOM     22  C   LIG    1       24.497 164.639  23.143  0.00  0.00    +0.050 A 
ATOM     23  C   LIG    1       25.148 165.532  23.994  0.00  0.00    +0.158 A 
ATOM     24  C   LIG    1       24.765 166.872  24.024  0.00  0.00    +0.159 A 
ATOM     29  C   LIG    1       23.731 167.321  23.202  0.00  0.00    +0.060 A 
BRANCH  24  25
ATOM     25  O   LIG    1       25.396 167.753  24.851  0.00  0.00    -0.503 OA
ATOM     26  H   LIG    1       25.140 168.654  24.590  0.00  0.00    +0.292 HD
ENDBRANCH  24  25
BRANCH  23  27
ATOM     27  O   LIG    1       26.156 165.081  24.793  0.00  0.00    -0.503 OA
ATOM     28  H   LIG    1       26.117 165.548  25.646  0.00  0.00    +0.292 HD
ENDBRANCH  23  27
ENDBRANCH  19  20
BRANCH  15  33
ATOM     33  O   LIG    1       18.307 169.086  18.757  0.00  0.00    -0.506 OA
ATOM     34  H   LIG    1       17.346 169.046  18.637  0.00  0.00    +0.292 HD
ENDBRANCH  15  33
BRANCH  13  12
ATOM     12  O   LIG    1       18.216 164.512  17.474  0.00  0.00    -0.461 OA
BRANCH  12   2
ATOM      1  O   LIG    1       16.040 163.948  18.098  0.00  0.00    -0.331 OA
ATOM      2  C   LIG    1       16.834 164.647  17.143  0.00  0.00    +0.339 C 
ATOM      3  C   LIG    1       16.627 164.065  15.744  0.00  0.00    +0.214 C 
ATOM      4  C   LIG    1       15.145 164.032  15.370  0.00  0.00    +0.180 C 
ATOM      5  C   LIG    1       14.304 163.419  16.490  0.00  0.00    +0.177 C 
ATOM     36  C   LIG    1       14.640 164.065  17.836  0.00  0.00    +0.179 C 
BRANCH   5   6
ATOM      6  O   LIG    1       12.922 163.616  16.204  0.00  0.00    -0.386 OA
ATOM      7  H   LIG    1       12.406 163.141  16.878  0.00  0.00    +0.210 HD
ENDBRANCH   5   6
BRANCH   4   8
ATOM      8  O   LIG    1       14.968 163.236  14.197  0.00  0.00    -0.386 OA
ATOM      9  H   LIG    1       14.197 162.662  14.349  0.00  0.00    +0.210 HD
ENDBRANCH   4   8
BRANCH   3  10
ATOM     10  O   LIG    1       17.333 164.882  14.810  0.00  0.00    -0.383 OA
ATOM     11  H   LIG    1       17.360 164.411  13.959  0.00  0.00    +0.210 HD
ENDBRANCH   3  10
BRANCH  36  37
ATOM     37  C   LIG    1       13.899 163.389  18.986  0.00  0.00    +0.190 C 
BRANCH  37  38
ATOM     38  O   LIG    1       13.501 162.097  18.568  0.00  0.00    -0.392 OA
ATOM     39  H   LIG    1       14.298 161.623  18.273  0.00  0.00    +0.210 HD
ENDBRANCH  37  38
ENDBRANCH  36  37
ENDBRANCH  12   2
ENDBRANCH  13  12
TORSDOF 11
ENDMDL
MODEL 5
REMARK VINA RESULT:      -7.6      2.686      8.846
REMARK  Name = 5280637
REMARK                            x       y       z     vdW  Elec       q    Type
REMARK                         _______ _______ _______ _____ _____    ______ ____
ROOT
ATOM     13  C   LIG    1       14.300 164.735  15.763  0.00  0.00    +0.131 A 
ATOM     14  C   LIG    1       13.526 163.613  15.468  0.00  0.00    +0.092 A 
ATOM     15  C   LIG    1       13.285 163.255  14.141  0.00  0.00    +0.135 A 
ATOM     16  C   LIG    1       13.824 164.029  13.111  0.00  0.00    +0.105 A 
ATOM     17  C   LIG    1       13.586 163.678  11.702  0.00  0.00    +0.197 A 
ATOM     18  C   LIG    1       14.206 164.564  10.696  0.00  0.00    +0.098 A 
ATOM     19  C   LIG    1       14.936 165.614  11.104  0.00  0.00    +0.139 A 
ATOM     30  O   LIG    1       15.152 165.946  12.432  0.00  0.00    -0.454 OA
ATOM     31  O   LIG    1       12.915 162.710  11.374  0.00  0.00    -0.287 OA
ATOM     32  C   LIG    1       14.599 165.151  13.404  0.00  0.00    +0.146 A 
ATOM     35  C   LIG    1       14.837 165.506  14.731  0.00  0.00    +0.093 A 
ENDROOT
BRANCH  19  20
ATOM     20  C   LIG    1       15.572 166.539  10.143  0.00  0.00    +0.021 A 
ATOM     21  C   LIG    1       16.202 166.039   9.001  0.00  0.00    +0.015 A 
ATOM     22  C   LIG    1       16.803 166.913   8.095  0.00  0.00    +0.050 A 
ATOM     23  C   LIG    1       16.775 168.288   8.328  0.00  0.00    +0.158 A 
ATOM     24  C   LIG    1       16.147 168.789   9.468  0.00  0.00    +0.159 A 
ATOM     29  C   LIG    1       15.546 167.916  10.374  0.00  0.00    +0.060 A 
BRANCH  24  25
ATOM     25  O   LIG    1       16.112 170.131   9.704  0.00  0.00    -0.503 OA
ATOM     26  H   LIG    1       16.856 170.544   9.234  0.00  0.00    +0.292 HD
ENDBRANCH  24  25
BRANCH  23  27
ATOM     27  O   LIG    1       17.366 169.130   7.436  0.00  0.00    -0.503 OA
ATOM     28  H   LIG    1       17.306 170.041   7.771  0.00  0.00    +0.292 HD
ENDBRANCH  23  27
ENDBRANCH  19  20
BRANCH  15  33
ATOM     33  O   LIG    1       12.522 162.151  13.907  0.00  0.00    -0.506 OA
ATOM     34  H   LIG    1       12.803 161.710  13.091  0.00  0.00    +0.292 HD
ENDBRANCH  15  33
BRANCH  13  12
ATOM     12  O   LIG    1       14.532 165.081  17.062  0.00  0.00    -0.461 OA
BRANCH  12   2
ATOM      1  O   LIG    1       13.938 164.390  19.210  0.00  0.00    -0.331 OA
ATOM      2  C   LIG    1       14.599 164.012  18.004  0.00  0.00    +0.339 C 
ATOM      3  C   LIG    1       16.074 163.713  18.272  0.00  0.00    +0.214 C 
ATOM      4  C   LIG    1       16.238 162.678  19.387  0.00  0.00    +0.180 C 
ATOM      5  C   LIG    1       15.387 163.037  20.605  0.00  0.00    +0.177 C 
ATOM     36  C   LIG    1       13.948 163.349  20.189  0.00  0.00    +0.179 C 
BRANCH   5   6
ATOM      6  O   LIG    1       15.387 161.943  21.519  0.00  0.00    -0.386 OA
ATOM      7  H   LIG    1       14.507 161.896  21.930  0.00  0.00    +0.210 HD
ENDBRANCH   5   6
BRANCH   4   8
ATOM      8  O   LIG    1       17.605 162.636  19.799  0.00  0.00    -0.386 OA
ATOM      9  H   LIG    1       17.833 163.518  20.141  0.00  0.00    +0.210 HD
ENDBRANCH   4   8
BRANCH   3  10
ATOM     10  O   LIG    1       16.655 163.209  17.070  0.00  0.00    -0.383 OA
ATOM     11  H   LIG    1       16.837 162.262  17.197  0.00  0.00    +0.210 HD
ENDBRANCH   3  10
BRANCH  36  37
ATOM     37  C   LIG    1       13.109 163.824  21.372  0.00  0.00    +0.190 C 
BRANCH  37  38
ATOM     38  O   LIG    1       11.744 163.589  21.079  0.00  0.00    -0.392 OA
ATOM     39  H   LIG    1       11.648 163.574  20.111  0.00  0.00    +0.210 HD
ENDBRANCH  37  38
ENDBRANCH  36  37
ENDBRANCH  12   2
ENDBRANCH  13  12
TORSDOF 11
ENDMDL
MODEL 6
REMARK VINA RESULT:      -7.6      2.114      8.516
REMARK  Name = 5280637
REMARK                            x       y       z     vdW  Elec       q    Type
REMARK                         _______ _______ _______ _____ _____    ______ ____
ROOT
ATOM     13  C   LIG    1       15.077 165.181  16.767  0.00  0.00    +0.131 A 
ATOM     14  C   LIG    1       14.285 164.095  17.140  0.00  0.00    +0.092 A 
ATOM     15  C   LIG    1       13.648 163.325  16.166  0.00  0.00    +0.135 A 
ATOM     16  C   LIG    1       13.808 163.649  14.817  0.00  0.00    +0.105 A 
ATOM     17  C   LIG    1       13.147 162.858  13.769  0.00  0.00    +0.197 A 
ATOM     18  C   LIG    1       13.387 163.289  12.376  0.00  0.00    +0.098 A 
ATOM     19  C   LIG    1       14.176 164.350  12.143  0.00  0.00    +0.139 A 
ATOM     30  O   LIG    1       14.791 165.099  13.134  0.00  0.00    -0.454 OA
ATOM     31  O   LIG    1       12.437 161.896  14.026  0.00  0.00    -0.287 OA
ATOM     32  C   LIG    1       14.600 164.734  14.443  0.00  0.00    +0.146 A 
ATOM     35  C   LIG    1       15.235 165.503  15.418  0.00  0.00    +0.093 A 
ENDROOT
BRANCH  19  20
ATOM     20  C   LIG    1       14.445 164.832  10.773  0.00  0.00    +0.021 A 
ATOM     21  C   LIG    1       13.446 164.771   9.800  0.00  0.00    +0.015 A 
ATOM     22  C   LIG    1       13.700 165.225   8.506  0.00  0.00    +0.050 A 
ATOM     23  C   LIG    1       14.955 165.742   8.182  0.00  0.00    +0.158 A 
ATOM     24  C   LIG    1       15.955 165.803   9.152  0.00  0.00    +0.159 A 
ATOM     29  C   LIG    1       15.701 165.349  10.446  0.00  0.00    +0.060 A 
BRANCH  24  25
ATOM     25  O   LIG    1       17.183 166.308   8.846  0.00  0.00    -0.503 OA
ATOM     26  H   LIG    1       17.684 165.626   8.367  0.00  0.00    +0.292 HD
ENDBRANCH  24  25
BRANCH  23  27
ATOM     27  O   LIG    1       15.191 166.181   6.914  0.00  0.00    -0.503 OA
ATOM     28  H   LIG    1       14.359 166.511   6.533  0.00  0.00    +0.292 HD
ENDBRANCH  23  27
ENDBRANCH  19  20
BRANCH  15  33
ATOM     33  O   LIG    1       12.885 162.275  16.582  0.00  0.00    -0.506 OA
ATOM     34  H   LIG    1       12.957 161.535  15.962  0.00  0.00    +0.292 HD
ENDBRANCH  15  33
BRANCH  13  12
ATOM     12  O   LIG    1       15.698 165.931  17.723  0.00  0.00    -0.461 OA
BRANCH  12   2
ATOM      1  O   LIG    1       17.520 164.549  17.261  0.00  0.00    -0.331 OA
ATOM      2  C   LIG    1       16.940 165.432  18.217  0.00  0.00    +0.339 C 
ATOM      3  C   LIG    1       16.663 164.697  19.528  0.00  0.00    +0.214 C 
ATOM      4  C   LIG    1       17.919 164.000  20.052  0.00  0.00    +0.180 C 
ATOM      5  C   LIG    1       18.603 163.189  18.951  0.00  0.00    +0.177 C 
ATOM     36  C   LIG    1       18.783 164.033  17.687  0.00  0.00    +0.179 C 
BRANCH   5   6
ATOM      6  O   LIG    1       19.878 162.750  19.411  0.00  0.00    -0.386 OA
ATOM      7  H   LIG    1       20.117 161.949  18.914  0.00  0.00    +0.210 HD
ENDBRANCH   5   6
BRANCH   4   8
ATOM      8  O   LIG    1       17.562 163.104  21.106  0.00  0.00    -0.386 OA
ATOM      9  H   LIG    1       17.176 162.311  20.695  0.00  0.00    +0.210 HD
ENDBRANCH   4   8
BRANCH   3  10
ATOM     10  O   LIG    1       16.213 165.650  20.491  0.00  0.00    -0.383 OA
ATOM     11  H   LIG    1       16.119 166.508  20.044  0.00  0.00    +0.210 HD
ENDBRANCH   3  10
BRANCH  36  37
ATOM     37  C   LIG    1       19.356 163.210  16.537  0.00  0.00    +0.190 C 
BRANCH  37  38
ATOM     38  O   LIG    1       18.316 162.424  15.985  0.00  0.00    -0.392 OA
ATOM     39  H   LIG    1       18.502 161.494  16.202  0.00  0.00    +0.210 HD
ENDBRANCH  37  38
ENDBRANCH  36  37
ENDBRANCH  12   2
ENDBRANCH  13  12
TORSDOF 11
ENDMDL
MODEL 7
REMARK VINA RESULT:      -7.5     24.000     27.184
REMARK  Name = 5280637
REMARK                            x       y       z     vdW  Elec       q    Type
REMARK                         _______ _______ _______ _____ _____    ______ ____
ROOT
ATOM     13  C   LIG    1       13.498 142.181  27.941  0.00  0.00    +0.131 A 
ATOM     14  C   LIG    1       14.603 142.563  27.182  0.00  0.00    +0.092 A 
ATOM     15  C   LIG    1       15.028 143.893  27.181  0.00  0.00    +0.135 A 
ATOM     16  C   LIG    1       14.338 144.837  27.945  0.00  0.00    +0.105 A 
ATOM     17  C   LIG    1       14.760 146.245  27.963  0.00  0.00    +0.197 A 
ATOM     18  C   LIG    1       13.960 147.156  28.807  0.00  0.00    +0.098 A 
ATOM     19  C   LIG    1       12.919 146.667  29.499  0.00  0.00    +0.139 A 
ATOM     30  O   LIG    1       12.518 145.340  29.474  0.00  0.00    -0.454 OA
ATOM     31  O   LIG    1       15.718 146.649  27.318  0.00  0.00    -0.287 OA
ATOM     32  C   LIG    1       13.233 144.456  28.705  0.00  0.00    +0.146 A 
ATOM     35  C   LIG    1       12.811 143.127  28.704  0.00  0.00    +0.093 A 
ENDROOT
BRANCH  19  20
ATOM     20  C   LIG    1       12.078 147.531  30.352  0.00  0.00    +0.021 A 
ATOM     21  C   LIG    1       10.938 148.141  29.824  0.00  0.00    +0.015 A 
ATOM     22  C   LIG    1       10.145 148.958  30.630  0.00  0.00    +0.050 A 
ATOM     23  C   LIG    1       10.489 149.167  31.966  0.00  0.00    +0.158 A 
ATOM     24  C   LIG    1       11.628 148.559  32.495  0.00  0.00    +0.159 A 
ATOM     29  C   LIG    1       12.421 147.742  31.689  0.00  0.00    +0.060 A 
BRANCH  24  25
ATOM     25  O   LIG    1       11.973 148.755  33.799  0.00  0.00    -0.503 OA
ATOM     26  H   LIG    1       11.207 149.134  34.264  0.00  0.00    +0.292 HD
ENDBRANCH  24  25
BRANCH  23  27
ATOM     27  O   LIG    1        9.707 149.968  32.741  0.00  0.00    -0.503 OA
ATOM     28  H   LIG    1        8.775 149.717  32.618  0.00  0.00    +0.292 HD
ENDBRANCH  23  27
ENDBRANCH  19  20
BRANCH  15  33
ATOM     33  O   LIG    1       16.112 144.215  26.422  0.00  0.00    -0.506 OA
ATOM     34  H   LIG    1       15.995 143.904  25.512  0.00  0.00    +0.292 HD
ENDBRANCH  15  33
BRANCH  13  12
ATOM     12  O   LIG    1       13.087 140.880  27.939  0.00  0.00    -0.461 OA
BRANCH  12   2
ATOM      1  O   LIG    1       12.547 139.800  25.943  0.00  0.00    -0.331 OA
ATOM      2  C   LIG    1       13.584 140.056  26.886  0.00  0.00    +0.339 C 
ATOM      3  C   LIG    1       14.080 138.749  27.506  0.00  0.00    +0.214 C 
ATOM      4  C   LIG    1       14.493 137.744  26.430  0.00  0.00    +0.180 C 
ATOM      5  C   LIG    1       13.419 137.617  25.350  0.00  0.00    +0.177 C 
ATOM     36  C   LIG    1       12.989 138.997  24.846  0.00  0.00    +0.179 C 
BRANCH   5   6
ATOM      6  O   LIG    1       13.934 136.857  24.260  0.00  0.00    -0.386 OA
ATOM      7  H   LIG    1       13.725 137.332  23.437  0.00  0.00    +0.210 HD
ENDBRANCH   5   6
BRANCH   4   8
ATOM      8  O   LIG    1       14.677 136.459  27.026  0.00  0.00    -0.386 OA
ATOM      9  H   LIG    1       14.687 135.804  26.306  0.00  0.00    +0.210 HD
ENDBRANCH   4   8
BRANCH   3  10
ATOM     10  O   LIG    1       15.204 139.045  28.335  0.00  0.00    -0.383 OA
ATOM     11  H   LIG    1       15.097 139.949  28.676  0.00  0.00    +0.210 HD
ENDBRANCH   3  10
BRANCH  36  37
ATOM     37  C   LIG    1       11.835 138.900  23.853  0.00  0.00    +0.190 C 
BRANCH  37  38
ATOM     38  O   LIG    1       12.371 138.675  22.562  0.00  0.00    -0.392 OA
ATOM     39  H   LIG    1       13.189 138.160  22.667  0.00  0.00    +0.210 HD
ENDBRANCH  37  38
ENDBRANCH  36  37
ENDBRANCH  12   2
ENDBRANCH  13  12
TORSDOF 11
ENDMDL
MODEL 8
REMARK VINA RESULT:      -7.2      2.876      9.466
REMARK  Name = 5280637
REMARK                            x       y       z     vdW  Elec       q    Type
REMARK                         _______ _______ _______ _____ _____    ______ ____
ROOT
ATOM     13  C   LIG    1       16.113 164.392  17.340  0.00  0.00    +0.131 A 
ATOM     14  C   LIG    1       15.092 163.556  17.792  0.00  0.00    +0.092 A 
ATOM     15  C   LIG    1       14.121 163.091  16.905  0.00  0.00    +0.135 A 
ATOM     16  C   LIG    1       14.178 163.469  15.561  0.00  0.00    +0.105 A 
ATOM     17  C   LIG    1       13.168 162.997  14.602  0.00  0.00    +0.197 A 
ATOM     18  C   LIG    1       13.327 163.457  13.207  0.00  0.00    +0.098 A 
ATOM     19  C   LIG    1       14.357 164.258  12.892  0.00  0.00    +0.139 A 
ATOM     30  O   LIG    1       15.303 164.708  13.800  0.00  0.00    -0.454 OA
ATOM     31  O   LIG    1       12.245 162.266  14.932  0.00  0.00    -0.287 OA
ATOM     32  C   LIG    1       15.198 164.305  15.107  0.00  0.00    +0.146 A 
ATOM     35  C   LIG    1       16.167 164.768  15.997  0.00  0.00    +0.093 A 
ENDROOT
BRANCH  19  20
ATOM     20  C   LIG    1       14.561 164.756  11.516  0.00  0.00    +0.021 A 
ATOM     21  C   LIG    1       13.647 164.434  10.511  0.00  0.00    +0.015 A 
ATOM     22  C   LIG    1       13.841 164.903   9.212  0.00  0.00    +0.050 A 
ATOM     23  C   LIG    1       14.949 165.697   8.915  0.00  0.00    +0.158 A 
ATOM     24  C   LIG    1       15.864 166.020   9.917  0.00  0.00    +0.159 A 
ATOM     29  C   LIG    1       15.670 165.551  11.216  0.00  0.00    +0.060 A 
BRANCH  24  25
ATOM     25  O   LIG    1       16.948 166.796   9.638  0.00  0.00    -0.503 OA
ATOM     26  H   LIG    1       17.287 166.545   8.762  0.00  0.00    +0.292 HD
ENDBRANCH  24  25
BRANCH  23  27
ATOM     27  O   LIG    1       15.127 166.148   7.642  0.00  0.00    -0.503 OA
ATOM     28  H   LIG    1       16.078 166.276   7.482  0.00  0.00    +0.292 HD
ENDBRANCH  23  27
ENDBRANCH  19  20
BRANCH  15  33
ATOM     33  O   LIG    1       13.145 162.278  17.396  0.00  0.00    -0.506 OA
ATOM     34  H   LIG    1       12.726 161.777  16.680  0.00  0.00    +0.292 HD
ENDBRANCH  15  33
BRANCH  13  12
ATOM     12  O   LIG    1       17.060 164.844  18.212  0.00  0.00    -0.461 OA
BRANCH  12   2
ATOM      1  O   LIG    1       16.906 165.567  20.424  0.00  0.00    -0.331 OA
ATOM      2  C   LIG    1       16.928 164.426  19.570  0.00  0.00    +0.339 C 
ATOM      3  C   LIG    1       18.120 163.529  19.903  0.00  0.00    +0.214 C 
ATOM      4  C   LIG    1       18.138 163.157  21.386  0.00  0.00    +0.180 C 
ATOM      5  C   LIG    1       17.951 164.391  22.269  0.00  0.00    +0.177 C 
ATOM     36  C   LIG    1       16.750 165.217  21.801  0.00  0.00    +0.179 C 
BRANCH   5   6
ATOM      6  O   LIG    1       17.743 163.979  23.617  0.00  0.00    -0.386 OA
ATOM      7  H   LIG    1       18.055 163.062  23.703  0.00  0.00    +0.210 HD
ENDBRANCH   5   6
BRANCH   4   8
ATOM      8  O   LIG    1       19.397 162.566  21.713  0.00  0.00    -0.386 OA
ATOM      9  H   LIG    1       19.526 161.809  21.116  0.00  0.00    +0.210 HD
ENDBRANCH   4   8
BRANCH   3  10
ATOM     10  O   LIG    1       18.020 162.341  19.118  0.00  0.00    -0.383 OA
ATOM     11  H   LIG    1       18.801 162.295  18.540  0.00  0.00    +0.210 HD
ENDBRANCH   3  10
BRANCH  36  37
ATOM     37  C   LIG    1       16.613 166.513  22.593  0.00  0.00    +0.190 C 
BRANCH  37  38
ATOM     38  O   LIG    1       15.834 166.257  23.746  0.00  0.00    -0.392 OA
ATOM     39  H   LIG    1       16.399 165.794  24.388  0.00  0.00    +0.210 HD
ENDBRANCH  37  38
ENDBRANCH  36  37
ENDBRANCH  12   2
ENDBRANCH  13  12
TORSDOF 11
ENDMDL
MODEL 9
REMARK VINA RESULT:      -7.2     25.498     27.145
REMARK  Name = 5280637
REMARK                            x       y       z     vdW  Elec       q    Type
REMARK                         _______ _______ _______ _____ _____    ______ ____
ROOT
ATOM     13  C   LIG    1        7.339 139.871  14.793  0.00  0.00    +0.131 A 
ATOM     14  C   LIG    1        6.149 139.147  14.863  0.00  0.00    +0.092 A 
ATOM     15  C   LIG    1        5.628 138.773  16.103  0.00  0.00    +0.135 A 
ATOM     16  C   LIG    1        6.306 139.129  17.271  0.00  0.00    +0.105 A 
ATOM     17  C   LIG    1        5.783 138.748  18.591  0.00  0.00    +0.197 A 
ATOM     18  C   LIG    1        6.580 139.179  19.758  0.00  0.00    +0.098 A 
ATOM     19  C   LIG    1        7.708 139.879  19.562  0.00  0.00    +0.139 A 
ATOM     30  O   LIG    1        8.203 140.230  18.315  0.00  0.00    -0.454 OA
ATOM     31  O   LIG    1        4.748 138.111  18.725  0.00  0.00    -0.287 OA
ATOM     32  C   LIG    1        7.495 139.854  17.201  0.00  0.00    +0.146 A 
ATOM     35  C   LIG    1        8.014 140.225  15.962  0.00  0.00    +0.093 A 
ENDROOT
BRANCH  19  20
ATOM     20  C   LIG    1        8.550 140.328  20.690  0.00  0.00    +0.021 A 
ATOM     21  C   LIG    1        8.494 139.661  21.915  0.00  0.00    +0.015 A 
ATOM     22  C   LIG    1        9.288 140.087  22.980  0.00  0.00    +0.050 A 
ATOM     23  C   LIG    1       10.141 141.180  22.822  0.00  0.00    +0.158 A 
ATOM     24  C   LIG    1       10.198 141.848  21.599  0.00  0.00    +0.159 A 
ATOM     29  C   LIG    1        9.404 141.423  20.534  0.00  0.00    +0.060 A 
BRANCH  24  25
ATOM     25  O   LIG    1       11.028 142.916  21.433  0.00  0.00    -0.503 OA
ATOM     26  H   LIG    1       11.890 142.697  21.827  0.00  0.00    +0.292 HD
ENDBRANCH  24  25
BRANCH  23  27
ATOM     27  O   LIG    1       10.910 141.586  23.870  0.00  0.00    -0.503 OA
ATOM     28  H   LIG    1       10.335 141.771  24.632  0.00  0.00    +0.292 HD
ENDBRANCH  23  27
ENDBRANCH  19  20
BRANCH  15  33
ATOM     33  O   LIG    1        4.463 138.066  16.118  0.00  0.00    -0.506 OA
ATOM     34  H   LIG    1        4.164 137.923  17.028  0.00  0.00    +0.292 HD
ENDBRANCH  15  33
BRANCH  13  12
ATOM     12  O   LIG    1        7.844 140.234  13.578  0.00  0.00    -0.461 OA
BRANCH  12   2
ATOM      1  O   LIG    1       10.008 139.471  13.156  0.00  0.00    -0.331 OA
ATOM      2  C   LIG    1        8.624 139.255  12.894  0.00  0.00    +0.339 C 
ATOM      3  C   LIG    1        8.335 139.386  11.398  0.00  0.00    +0.214 C 
ATOM      4  C   LIG    1        9.244 138.472  10.574  0.00  0.00    +0.180 C 
ATOM      5  C   LIG    1       10.706 138.618  10.998  0.00  0.00    +0.177 C 
ATOM     36  C   LIG    1       10.845 138.505  12.517  0.00  0.00    +0.179 C 
BRANCH   5   6
ATOM      6  O   LIG    1       11.480 137.596  10.376  0.00  0.00    -0.386 OA
ATOM      7  H   LIG    1       10.918 136.808  10.283  0.00  0.00    +0.210 HD
ENDBRANCH   5   6
BRANCH   4   8
ATOM      8  O   LIG    1        9.146 138.825   9.193  0.00  0.00    -0.386 OA
ATOM      9  H   LIG    1        8.416 138.306   8.812  0.00  0.00    +0.210 HD
ENDBRANCH   4   8
BRANCH   3  10
ATOM     10  O   LIG    1        6.973 139.027  11.171  0.00  0.00    -0.383 OA
ATOM     11  H   LIG    1        6.678 138.475  11.917  0.00  0.00    +0.210 HD
ENDBRANCH   3  10
BRANCH  36  37
ATOM     37  C   LIG    1       12.277 138.764  12.974  0.00  0.00    +0.190 C 
BRANCH  37  38
ATOM     38  O   LIG    1       13.073 137.649  12.614  0.00  0.00    -0.392 OA
ATOM     39  H   LIG    1       13.969 137.974  12.424  0.00  0.00    +0.210 HD
ENDBRANCH  37  38
ENDBRANCH  36  37
ENDBRANCH  12   2
ENDBRANCH  13  12
TORSDOF 11
ENDMDL
