MODEL 1
REMARK VINA RESULT:      -5.9      0.000      0.000
REMARK  Name = 445858
REMARK                            x       y       z     vdW  Elec       q    Type
REMARK                         _______ _______ _______ _____ _____    ______ ____
ROOT
ATOM      3  C   LIG    1       28.008 155.691  29.563  0.00  0.00    +0.162 A 
ATOM      4  C   LIG    1       27.045 155.700  28.553  0.00  0.00    +0.158 A 
ATOM      5  C   LIG    1       25.702 155.898  28.872  0.00  0.00    +0.050 A 
ATOM      6  C   LIG    1       25.321 156.087  30.201  0.00  0.00    +0.012 A 
ATOM      7  C   LIG    1       26.283 156.078  31.210  0.00  0.00    -0.021 A 
ATOM     16  C   LIG    1       27.627 155.880  30.892  0.00  0.00    +0.057 A 
ENDROOT
BRANCH   3   1
ATOM      1  O   LIG    1       29.323 155.497  29.263  0.00  0.00    -0.491 OA
ATOM      2  C   LIG    1       30.076 156.647  28.881  0.00  0.00    +0.277 C 
ENDBRANCH   3   1
BRANCH   7   8
ATOM      8  C   LIG    1       25.886 156.276  32.595  0.00  0.00    +0.015 C 
ATOM      9  C   LIG    1       25.656 155.291  33.491  0.00  0.00    +0.092 C 
BRANCH   9  10
ATOM     10  C   LIG    1       25.267 155.625  34.875  0.00  0.00    +0.330 C 
ATOM     11  O   LIG    1       25.956 156.196  35.705  0.00  0.00    -0.246 OA
BRANCH  10  12
ATOM     12  O   LIG    1       24.002 155.192  35.087  0.00  0.00    -0.478 OA
ATOM     13  H   LIG    1       23.601 154.818  34.274  0.00  0.00    +0.295 HD
ENDBRANCH  10  12
ENDBRANCH   9  10
ENDBRANCH   7   8
BRANCH   4  14
ATOM     14  O   LIG    1       27.404 155.515  27.252  0.00  0.00    -0.503 OA
ATOM     15  H   LIG    1       27.170 154.610  26.984  0.00  0.00    +0.292 HD
ENDBRANCH   4  14
TORSDOF 5
ENDMDL
MODEL 2
REMARK VINA RESULT:      -5.9      1.253      5.721
REMARK  Name = 445858
REMARK                            x       y       z     vdW  Elec       q    Type
REMARK                         _______ _______ _______ _____ _____    ______ ____
ROOT
ATOM      3  C   LIG    1       25.060 155.539  33.434  0.00  0.00    +0.162 A 
ATOM      4  C   LIG    1       23.894 155.841  32.729  0.00  0.00    +0.158 A 
ATOM      5  C   LIG    1       23.973 156.293  31.412  0.00  0.00    +0.050 A 
ATOM      6  C   LIG    1       25.218 156.443  30.799  0.00  0.00    +0.012 A 
ATOM      7  C   LIG    1       26.382 156.142  31.504  0.00  0.00    -0.021 A 
ATOM     16  C   LIG    1       26.304 155.690  32.821  0.00  0.00    +0.057 A 
ENDROOT
BRANCH   3   1
ATOM      1  O   LIG    1       24.995 155.098  34.721  0.00  0.00    -0.491 OA
ATOM      2  C   LIG    1       25.608 155.915  35.717  0.00  0.00    +0.277 C 
ENDBRANCH   3   1
BRANCH   7   8
ATOM      8  C   LIG    1       27.679 156.298  30.866  0.00  0.00    +0.015 C 
ATOM      9  C   LIG    1       27.985 155.903  29.609  0.00  0.00    +0.092 C 
BRANCH   9  10
ATOM     10  C   LIG    1       29.342 156.128  29.072  0.00  0.00    +0.330 C 
ATOM     11  O   LIG    1       30.393 155.979  29.672  0.00  0.00    -0.246 OA
BRANCH  10  12
ATOM     12  O   LIG    1       29.237 156.532  27.784  0.00  0.00    -0.478 OA
ATOM     13  H   LIG    1       28.613 155.974  27.274  0.00  0.00    +0.295 HD
ENDBRANCH  10  12
ENDBRANCH   9  10
ENDBRANCH   7   8
BRANCH   4  14
ATOM     14  O   LIG    1       22.673 155.699  33.316  0.00  0.00    -0.503 OA
ATOM     15  H   LIG    1       22.056 156.340  32.922  0.00  0.00    +0.292 HD
ENDBRANCH   4  14
TORSDOF 5
ENDMDL
MODEL 3
REMARK VINA RESULT:      -5.4     28.503     31.051
REMARK  Name = 445858
REMARK                            x       y       z     vdW  Elec       q    Type
REMARK                         _______ _______ _______ _____ _____    ______ ____
ROOT
ATOM      3  C   LIG    1       25.001 172.093   5.651  0.00  0.00    +0.162 A 
ATOM      4  C   LIG    1       24.771 171.656   6.956  0.00  0.00    +0.158 A 
ATOM      5  C   LIG    1       25.687 171.957   7.964  0.00  0.00    +0.050 A 
ATOM      6  C   LIG    1       26.834 172.694   7.667  0.00  0.00    +0.012 A 
ATOM      7  C   LIG    1       27.063 173.130   6.363  0.00  0.00    -0.021 A 
ATOM     16  C   LIG    1       26.148 172.830   5.355  0.00  0.00    +0.057 A 
ENDROOT
BRANCH   3   1
ATOM      1  O   LIG    1       24.113 171.805   4.658  0.00  0.00    -0.491 OA
ATOM      2  C   LIG    1       24.447 170.728   3.785  0.00  0.00    +0.277 C 
ENDBRANCH   3   1
BRANCH   7   8
ATOM      8  C   LIG    1       28.258 173.899   6.054  0.00  0.00    +0.015 C 
ATOM      9  C   LIG    1       28.983 173.796   4.917  0.00  0.00    +0.092 C 
BRANCH   9  10
ATOM     10  C   LIG    1       30.175 174.644   4.719  0.00  0.00    +0.330 C 
ATOM     11  O   LIG    1       30.183 175.847   4.516  0.00  0.00    -0.246 OA
BRANCH  10  12
ATOM     12  O   LIG    1       31.280 173.866   4.800  0.00  0.00    -0.478 OA
ATOM     13  H   LIG    1       31.330 173.221   4.063  0.00  0.00    +0.295 HD
ENDBRANCH  10  12
ENDBRANCH   9  10
ENDBRANCH   7   8
BRANCH   4  14
ATOM     14  O   LIG    1       23.655 170.935   7.258  0.00  0.00    -0.503 OA
ATOM     15  H   LIG    1       23.687 170.087   6.781  0.00  0.00    +0.292 HD
ENDBRANCH   4  14
TORSDOF 5
ENDMDL
MODEL 4
REMARK VINA RESULT:      -5.3      3.238      4.384
REMARK  Name = 445858
REMARK                            x       y       z     vdW  Elec       q    Type
REMARK                         _______ _______ _______ _____ _____    ______ ____
ROOT
ATOM      3  C   LIG    1       23.205 158.504  30.103  0.00  0.00    +0.162 A 
ATOM      4  C   LIG    1       23.231 157.773  28.915  0.00  0.00    +0.158 A 
ATOM      5  C   LIG    1       23.954 156.583  28.844  0.00  0.00    +0.050 A 
ATOM      6  C   LIG    1       24.652 156.122  29.962  0.00  0.00    +0.012 A 
ATOM      7  C   LIG    1       24.625 156.853  31.149  0.00  0.00    -0.021 A 
ATOM     16  C   LIG    1       23.902 158.043  31.221  0.00  0.00    +0.057 A 
ENDROOT
BRANCH   3   1
ATOM      1  O   LIG    1       22.503 159.669  30.184  0.00  0.00    -0.491 OA
ATOM      2  C   LIG    1       21.477 159.739  31.172  0.00  0.00    +0.277 C 
ENDBRANCH   3   1
BRANCH   7   8
ATOM      8  C   LIG    1       25.351 156.372  32.314  0.00  0.00    +0.015 C 
ATOM      9  C   LIG    1       24.795 155.764  33.386  0.00  0.00    +0.092 C 
BRANCH   9  10
ATOM     10  C   LIG    1       25.646 155.312  34.505  0.00  0.00    +0.330 C 
ATOM     11  O   LIG    1       25.908 155.942  35.516  0.00  0.00    -0.246 OA
BRANCH  10  12
ATOM     12  O   LIG    1       26.098 154.066  34.231  0.00  0.00    -0.478 OA
ATOM     13  H   LIG    1       25.626 153.382  34.751  0.00  0.00    +0.295 HD
ENDBRANCH  10  12
ENDBRANCH   9  10
ENDBRANCH   7   8
BRANCH   4  14
ATOM     14  O   LIG    1       22.556 158.213  27.817  0.00  0.00    -0.503 OA
ATOM     15  H   LIG    1       23.198 158.477  27.135  0.00  0.00    +0.292 HD
ENDBRANCH   4  14
TORSDOF 5
ENDMDL
MODEL 5
REMARK VINA RESULT:      -5.2     24.848     26.685
REMARK  Name = 445858
REMARK                            x       y       z     vdW  Elec       q    Type
REMARK                         _______ _______ _______ _____ _____    ______ ____
ROOT
ATOM      3  C   LIG    1        8.667 140.668  22.345  0.00  0.00    +0.162 A 
ATOM      4  C   LIG    1        9.854 141.401  22.320  0.00  0.00    +0.158 A 
ATOM      5  C   LIG    1       10.364 141.861  21.107  0.00  0.00    +0.050 A 
ATOM      6  C   LIG    1        9.687 141.589  19.917  0.00  0.00    +0.012 A 
ATOM      7  C   LIG    1        8.501 140.857  19.942  0.00  0.00    -0.021 A 
ATOM     16  C   LIG    1        7.990 140.396  21.155  0.00  0.00    +0.057 A 
ENDROOT
BRANCH   3   1
ATOM      1  O   LIG    1        8.159 140.212  23.524  0.00  0.00    -0.491 OA
ATOM      2  C   LIG    1        7.990 138.802  23.654  0.00  0.00    +0.277 C 
ENDBRANCH   3   1
BRANCH   7   8
ATOM      8  C   LIG    1        7.796 140.574  18.702  0.00  0.00    +0.015 C 
ATOM      9  C   LIG    1        7.914 141.281  17.556  0.00  0.00    +0.092 C 
BRANCH   9  10
ATOM     10  C   LIG    1        7.148 140.884  16.358  0.00  0.00    +0.330 C 
ATOM     11  O   LIG    1        7.609 140.483  15.302  0.00  0.00    -0.246 OA
BRANCH  10  12
ATOM     12  O   LIG    1        5.828 141.036  16.618  0.00  0.00    -0.478 OA
ATOM     13  H   LIG    1        5.269 140.559  15.968  0.00  0.00    +0.295 HD
ENDBRANCH  10  12
ENDBRANCH   9  10
ENDBRANCH   7   8
BRANCH   4  14
ATOM     14  O   LIG    1       10.524 141.672  23.475  0.00  0.00    -0.503 OA
ATOM     15  H   LIG    1        9.883 141.743  24.204  0.00  0.00    +0.292 HD
ENDBRANCH   4  14
TORSDOF 5
ENDMDL
MODEL 6
REMARK VINA RESULT:      -5.1      3.883      5.211
REMARK  Name = 445858
REMARK                            x       y       z     vdW  Elec       q    Type
REMARK                         _______ _______ _______ _____ _____    ______ ____
ROOT
ATOM      3  C   LIG    1       21.732 156.133  30.208  0.00  0.00    +0.162 A 
ATOM      4  C   LIG    1       20.445 156.485  30.615  0.00  0.00    +0.158 A 
ATOM      5  C   LIG    1       20.131 156.528  31.973  0.00  0.00    +0.050 A 
ATOM      6  C   LIG    1       21.103 156.218  32.924  0.00  0.00    +0.012 A 
ATOM      7  C   LIG    1       22.389 155.866  32.517  0.00  0.00    -0.021 A 
ATOM     16  C   LIG    1       22.704 155.823  31.159  0.00  0.00    +0.057 A 
ENDROOT
BRANCH   3   1
ATOM      1  O   LIG    1       22.050 156.087  28.883  0.00  0.00    -0.491 OA
ATOM      2  C   LIG    1       23.437 156.042  28.553  0.00  0.00    +0.277 C 
ENDBRANCH   3   1
BRANCH   7   8
ATOM      8  C   LIG    1       23.403 155.544  33.508  0.00  0.00    +0.015 C 
ATOM      9  C   LIG    1       24.738 155.624  33.316  0.00  0.00    +0.092 C 
BRANCH   9  10
ATOM     10  C   LIG    1       25.667 155.277  34.410  0.00  0.00    +0.330 C 
ATOM     11  O   LIG    1       25.948 155.976  35.371  0.00  0.00    -0.246 OA
BRANCH  10  12
ATOM     12  O   LIG    1       26.166 154.041  34.180  0.00  0.00    -0.478 OA
ATOM     13  H   LIG    1       26.580 153.657  34.983  0.00  0.00    +0.295 HD
ENDBRANCH  10  12
ENDBRANCH   9  10
ENDBRANCH   7   8
BRANCH   4  14
ATOM     14  O   LIG    1       19.486 156.789  29.695  0.00  0.00    -0.503 OA
ATOM     15  H   LIG    1       19.782 157.552  29.170  0.00  0.00    +0.292 HD
ENDBRANCH   4  14
TORSDOF 5
ENDMDL
MODEL 7
REMARK VINA RESULT:      -5.0      3.240      5.660
REMARK  Name = 445858
REMARK                            x       y       z     vdW  Elec       q    Type
REMARK                         _______ _______ _______ _____ _____    ______ ____
ROOT
ATOM      3  C   LIG    1       25.572 155.969  33.145  0.00  0.00    +0.162 A 
ATOM      4  C   LIG    1       25.173 155.813  34.473  0.00  0.00    +0.158 A 
ATOM      5  C   LIG    1       23.834 155.569  34.774  0.00  0.00    +0.050 A 
ATOM      6  C   LIG    1       22.893 155.480  33.749  0.00  0.00    +0.012 A 
ATOM      7  C   LIG    1       23.291 155.636  32.422  0.00  0.00    -0.021 A 
ATOM     16  C   LIG    1       24.631 155.881  32.119  0.00  0.00    +0.057 A 
ENDROOT
BRANCH   3   1
ATOM      1  O   LIG    1       26.878 156.210  32.838  0.00  0.00    -0.491 OA
ATOM      2  C   LIG    1       27.220 156.253  31.454  0.00  0.00    +0.277 C 
ENDBRANCH   3   1
BRANCH   7   8
ATOM      8  C   LIG    1       22.310 155.543  31.353  0.00  0.00    +0.015 C 
ATOM      9  C   LIG    1       22.535 155.852  30.056  0.00  0.00    +0.092 C 
BRANCH   9  10
ATOM     10  C   LIG    1       21.454 155.704  29.061  0.00  0.00    +0.330 C 
ATOM     11  O   LIG    1       21.224 156.451  28.124  0.00  0.00    -0.246 OA
BRANCH  10  12
ATOM     12  O   LIG    1       20.744 154.590  29.354  0.00  0.00    -0.478 OA
ATOM     13  H   LIG    1       21.008 154.202  30.215  0.00  0.00    +0.295 HD
ENDBRANCH  10  12
ENDBRANCH   9  10
ENDBRANCH   7   8
BRANCH   4  14
ATOM     14  O   LIG    1       26.083 155.899  35.484  0.00  0.00    -0.503 OA
ATOM     15  H   LIG    1       26.270 156.837  35.663  0.00  0.00    +0.292 HD
ENDBRANCH   4  14
TORSDOF 5
ENDMDL
MODEL 8
REMARK VINA RESULT:      -5.0      3.753      5.286
REMARK  Name = 445858
REMARK                            x       y       z     vdW  Elec       q    Type
REMARK                         _______ _______ _______ _____ _____    ______ ____
ROOT
ATOM      3  C   LIG    1       25.840 155.816  32.598  0.00  0.00    +0.162 A 
ATOM      4  C   LIG    1       25.211 154.894  33.436  0.00  0.00    +0.158 A 
ATOM      5  C   LIG    1       23.819 154.863  33.518  0.00  0.00    +0.050 A 
ATOM      6  C   LIG    1       23.056 155.754  32.763  0.00  0.00    +0.012 A 
ATOM      7  C   LIG    1       23.684 156.675  31.927  0.00  0.00    -0.021 A 
ATOM     16  C   LIG    1       25.076 156.707  31.843  0.00  0.00    +0.057 A 
ENDROOT
BRANCH   3   1
ATOM      1  O   LIG    1       27.199 155.857  32.510  0.00  0.00    -0.491 OA
ATOM      2  C   LIG    1       27.754 156.366  31.299  0.00  0.00    +0.277 C 
ENDBRANCH   3   1
BRANCH   7   8
ATOM      8  C   LIG    1       22.888 157.603  31.139  0.00  0.00    +0.015 C 
ATOM      9  C   LIG    1       23.152 158.919  30.978  0.00  0.00    +0.092 C 
BRANCH   9  10
ATOM     10  C   LIG    1       22.268 159.755  30.142  0.00  0.00    +0.330 C 
ATOM     11  O   LIG    1       21.360 159.361  29.428  0.00  0.00    -0.246 OA
BRANCH  10  12
ATOM     12  O   LIG    1       22.626 161.052  30.293  0.00  0.00    -0.478 OA
ATOM     13  H   LIG    1       21.923 161.664  29.989  0.00  0.00    +0.295 HD
ENDBRANCH  10  12
ENDBRANCH   9  10
ENDBRANCH   7   8
BRANCH   4  14
ATOM     14  O   LIG    1       25.946 154.020  34.178  0.00  0.00    -0.503 OA
ATOM     15  H   LIG    1       25.512 153.150  34.165  0.00  0.00    +0.292 HD
ENDBRANCH   4  14
TORSDOF 5
ENDMDL
MODEL 9
REMARK VINA RESULT:      -5.0      3.660      5.608
REMARK  Name = 445858
REMARK                            x       y       z     vdW  Elec       q    Type
REMARK                         _______ _______ _______ _____ _____    ______ ____
ROOT
ATOM      3  C   LIG    1       25.175 156.062  32.967  0.00  0.00    +0.162 A 
ATOM      4  C   LIG    1       26.187 156.265  32.027  0.00  0.00    +0.158 A 
ATOM      5  C   LIG    1       25.865 156.420  30.680  0.00  0.00    +0.050 A 
ATOM      6  C   LIG    1       24.532 156.371  30.270  0.00  0.00    +0.012 A 
ATOM      7  C   LIG    1       23.522 156.168  31.209  0.00  0.00    -0.021 A 
ATOM     16  C   LIG    1       23.843 156.013  32.558  0.00  0.00    +0.057 A 
ENDROOT
BRANCH   3   1
ATOM      1  O   LIG    1       25.478 155.909  34.287  0.00  0.00    -0.491 OA
ATOM      2  C   LIG    1       24.386 155.704  35.181  0.00  0.00    +0.277 C 
ENDBRANCH   3   1
BRANCH   7   8
ATOM      8  C   LIG    1       22.132 156.118  30.783  0.00  0.00    +0.015 C 
ATOM      9  C   LIG    1       21.643 155.329  29.800  0.00  0.00    +0.092 C 
BRANCH   9  10
ATOM     10  C   LIG    1       20.205 155.365  29.468  0.00  0.00    +0.330 C 
ATOM     11  O   LIG    1       19.408 156.231  29.789  0.00  0.00    -0.246 OA
BRANCH  10  12
ATOM     12  O   LIG    1       19.901 154.267  28.737  0.00  0.00    -0.478 OA
ATOM     13  H   LIG    1       20.597 154.061  28.077  0.00  0.00    +0.295 HD
ENDBRANCH  10  12
ENDBRANCH   9  10
ENDBRANCH   7   8
BRANCH   4  14
ATOM     14  O   LIG    1       27.492 156.314  32.415  0.00  0.00    -0.503 OA
ATOM     15  H   LIG    1       27.978 155.593  31.979  0.00  0.00    +0.292 HD
ENDBRANCH   4  14
TORSDOF 5
ENDMDL
