MODEL 1
REMARK VINA RESULT:      -8.2      0.000      0.000
REMARK  Name = 5280637
REMARK                            x       y       z     vdW  Elec       q    Type
REMARK                         _______ _______ _______ _____ _____    ______ ____
ROOT
ATOM     13  C   LIG    1       -5.052  33.124  63.245  0.00  0.00    +0.131 A 
ATOM     14  C   LIG    1       -5.741  34.013  64.069  0.00  0.00    +0.092 A 
ATOM     15  C   LIG    1       -7.083  34.304  63.819  0.00  0.00    +0.135 A 
ATOM     16  C   LIG    1       -7.730  33.699  62.739  0.00  0.00    +0.105 A 
ATOM     17  C   LIG    1       -9.142  33.987  62.449  0.00  0.00    +0.197 A 
ATOM     18  C   LIG    1       -9.725  33.290  61.284  0.00  0.00    +0.098 A 
ATOM     19  C   LIG    1       -8.960  32.450  60.570  0.00  0.00    +0.139 A 
ATOM     30  O   LIG    1       -7.626  32.186  60.841  0.00  0.00    -0.454 OA
ATOM     31  O   LIG    1       -9.805  34.759  63.128  0.00  0.00    -0.287 OA
ATOM     32  C   LIG    1       -7.042  32.809  61.915  0.00  0.00    +0.146 A 
ATOM     35  C   LIG    1       -5.701  32.520  62.167  0.00  0.00    +0.093 A 
ENDROOT
BRANCH  19  20
ATOM     20  C   LIG    1       -9.486  31.732  59.391  0.00  0.00    +0.021 A 
ATOM     21  C   LIG    1       -8.631  31.385  58.343  0.00  0.00    +0.015 A 
ATOM     22  C   LIG    1       -9.127  30.708  57.229  0.00  0.00    +0.050 A 
ATOM     23  C   LIG    1      -10.481  30.376  57.161  0.00  0.00    +0.158 A 
ATOM     24  C   LIG    1      -11.337  30.722  58.206  0.00  0.00    +0.159 A 
ATOM     29  C   LIG    1      -10.840  31.398  59.320  0.00  0.00    +0.060 A 
BRANCH  24  25
ATOM     25  O   LIG    1      -12.660  30.400  58.151  0.00  0.00    -0.503 OA
ATOM     26  H   LIG    1      -13.167  31.118  58.566  0.00  0.00    +0.292 HD
ENDBRANCH  24  25
BRANCH  23  27
ATOM     27  O   LIG    1      -10.954  29.716  56.067  0.00  0.00    -0.503 OA
ATOM     28  H   LIG    1      -11.908  29.885  55.983  0.00  0.00    +0.292 HD
ENDBRANCH  23  27
ENDBRANCH  19  20
BRANCH  15  33
ATOM     33  O   LIG    1       -7.711  35.180  64.652  0.00  0.00    -0.506 OA
ATOM     34  H   LIG    1       -7.918  34.757  65.499  0.00  0.00    +0.292 HD
ENDBRANCH  15  33
BRANCH  13  12
ATOM     12  O   LIG    1       -3.740  32.843  63.494  0.00  0.00    -0.461 OA
BRANCH  12   2
ATOM      1  O   LIG    1       -2.028  31.542  62.588  0.00  0.00    -0.331 OA
ATOM      2  C   LIG    1       -2.904  32.642  62.355  0.00  0.00    +0.339 C 
ATOM      3  C   LIG    1       -2.104  33.925  62.128  0.00  0.00    +0.214 C 
ATOM      4  C   LIG    1       -1.070  33.746  61.016  0.00  0.00    +0.180 C 
ATOM      5  C   LIG    1       -0.257  32.467  61.216  0.00  0.00    +0.177 C 
ATOM     36  C   LIG    1       -1.178  31.272  61.471  0.00  0.00    +0.179 C 
BRANCH   5   6
ATOM      6  O   LIG    1        0.526  32.218  60.052  0.00  0.00    -0.386 OA
ATOM      7  H   LIG    1        0.001  32.478  59.276  0.00  0.00    +0.210 HD
ENDBRANCH   5   6
BRANCH   4   8
ATOM      8  O   LIG    1       -0.165  34.852  61.025  0.00  0.00    -0.386 OA
ATOM      9  H   LIG    1        0.291  34.861  60.166  0.00  0.00    +0.210 HD
ENDBRANCH   4   8
BRANCH   3  10
ATOM     10  O   LIG    1       -3.014  34.963  61.765  0.00  0.00    -0.383 OA
ATOM     11  H   LIG    1       -3.653  35.071  62.491  0.00  0.00    +0.210 HD
ENDBRANCH   3  10
BRANCH  36  37
ATOM     37  C   LIG    1       -0.387  30.007  61.791  0.00  0.00    +0.190 C 
BRANCH  37  38
ATOM     38  O   LIG    1       -0.188  29.286  60.589  0.00  0.00    -0.392 OA
ATOM     39  H   LIG    1        0.772  29.201  60.451  0.00  0.00    +0.210 HD
ENDBRANCH  37  38
ENDBRANCH  36  37
ENDBRANCH  12   2
ENDBRANCH  13  12
TORSDOF 11
ENDMDL
MODEL 2
REMARK VINA RESULT:      -8.2      4.041     11.074
REMARK  Name = 5280637
REMARK                            x       y       z     vdW  Elec       q    Type
REMARK                         _______ _______ _______ _____ _____    ______ ____
ROOT
ATOM     13  C   LIG    1       -1.634  32.317  61.691  0.00  0.00    +0.131 A 
ATOM     14  C   LIG    1       -1.383  31.128  61.005  0.00  0.00    +0.092 A 
ATOM     15  C   LIG    1       -0.252  30.369  61.308  0.00  0.00    +0.135 A 
ATOM     16  C   LIG    1        0.626  30.807  62.302  0.00  0.00    +0.105 A 
ATOM     17  C   LIG    1        1.827  30.029  62.642  0.00  0.00    +0.197 A 
ATOM     18  C   LIG    1        2.683  30.585  63.710  0.00  0.00    +0.098 A 
ATOM     19  C   LIG    1        2.332  31.737  64.302  0.00  0.00    +0.139 A 
ATOM     30  O   LIG    1        1.203  32.472  63.974  0.00  0.00    -0.454 OA
ATOM     31  O   LIG    1        2.108  28.981  62.078  0.00  0.00    -0.287 OA
ATOM     32  C   LIG    1        0.376  31.994  62.989  0.00  0.00    +0.146 A 
ATOM     35  C   LIG    1       -0.755  32.752  62.684  0.00  0.00    +0.093 A 
ENDROOT
BRANCH  19  20
ATOM     20  C   LIG    1        3.154  32.344  65.369  0.00  0.00    +0.021 A 
ATOM     21  C   LIG    1        2.902  32.038  66.708  0.00  0.00    +0.015 A 
ATOM     22  C   LIG    1        3.677  32.612  67.715  0.00  0.00    +0.050 A 
ATOM     23  C   LIG    1        4.707  33.493  67.386  0.00  0.00    +0.158 A 
ATOM     24  C   LIG    1        4.960  33.801  66.049  0.00  0.00    +0.159 A 
ATOM     29  C   LIG    1        4.185  33.227  65.042  0.00  0.00    +0.060 A 
BRANCH  24  25
ATOM     25  O   LIG    1        5.965  34.660  65.717  0.00  0.00    -0.503 OA
ATOM     26  H   LIG    1        5.574  35.528  65.523  0.00  0.00    +0.292 HD
ENDBRANCH  24  25
BRANCH  23  27
ATOM     27  O   LIG    1        5.456  34.048  68.379  0.00  0.00    -0.503 OA
ATOM     28  H   LIG    1        6.050  34.716  67.993  0.00  0.00    +0.292 HD
ENDBRANCH  23  27
ENDBRANCH  19  20
BRANCH  15  33
ATOM     33  O   LIG    1       -0.052  29.217  60.608  0.00  0.00    -0.506 OA
ATOM     34  H   LIG    1        0.405  29.400  59.774  0.00  0.00    +0.292 HD
ENDBRANCH  15  33
BRANCH  13  12
ATOM     12  O   LIG    1       -2.741  33.056  61.391  0.00  0.00    -0.461 OA
BRANCH  12   2
ATOM      1  O   LIG    1       -4.680  31.961  62.086  0.00  0.00    -0.331 OA
ATOM      2  C   LIG    1       -3.795  33.045  62.353  0.00  0.00    +0.339 C 
ATOM      3  C   LIG    1       -4.536  34.379  62.252  0.00  0.00    +0.214 C 
ATOM      4  C   LIG    1       -5.777  34.395  63.146  0.00  0.00    +0.180 C 
ATOM      5  C   LIG    1       -6.619  33.135  62.945  0.00  0.00    +0.177 C 
ATOM     36  C   LIG    1       -5.748  31.879  63.032  0.00  0.00    +0.179 C 
BRANCH   5   6
ATOM      6  O   LIG    1       -7.629  33.078  63.948  0.00  0.00    -0.386 OA
ATOM      7  H   LIG    1       -7.522  33.852  64.527  0.00  0.00    +0.210 HD
ENDBRANCH   5   6
BRANCH   4   8
ATOM      8  O   LIG    1       -6.585  35.525  62.816  0.00  0.00    -0.386 OA
ATOM      9  H   LIG    1       -6.113  36.031  62.133  0.00  0.00    +0.210 HD
ENDBRANCH   4   8
BRANCH   3  10
ATOM     10  O   LIG    1       -3.646  35.418  62.660  0.00  0.00    -0.383 OA
ATOM     11  H   LIG    1       -2.842  35.003  63.018  0.00  0.00    +0.210 HD
ENDBRANCH   3  10
BRANCH  36  37
ATOM     37  C   LIG    1       -6.545  30.617  62.718  0.00  0.00    +0.190 C 
BRANCH  37  38
ATOM     38  O   LIG    1       -7.617  30.962  61.859  0.00  0.00    -0.392 OA
ATOM     39  H   LIG    1       -7.302  30.871  60.943  0.00  0.00    +0.210 HD
ENDBRANCH  37  38
ENDBRANCH  36  37
ENDBRANCH  12   2
ENDBRANCH  13  12
TORSDOF 11
ENDMDL
MODEL 3
REMARK VINA RESULT:      -8.1      3.920      7.213
REMARK  Name = 5280637
REMARK                            x       y       z     vdW  Elec       q    Type
REMARK                         _______ _______ _______ _____ _____    ______ ____
ROOT
ATOM     13  C   LIG    1        0.895  32.483  62.572  0.00  0.00    +0.131 A 
ATOM     14  C   LIG    1        1.158  31.233  62.011  0.00  0.00    +0.092 A 
ATOM     15  C   LIG    1        0.107  30.424  61.577  0.00  0.00    +0.135 A 
ATOM     16  C   LIG    1       -1.208  30.874  61.708  0.00  0.00    +0.105 A 
ATOM     17  C   LIG    1       -2.337  30.043  61.261  0.00  0.00    +0.197 A 
ATOM     18  C   LIG    1       -3.685  30.620  61.446  0.00  0.00    +0.098 A 
ATOM     19  C   LIG    1       -3.809  31.839  61.994  0.00  0.00    +0.139 A 
ATOM     30  O   LIG    1       -2.744  32.616  62.421  0.00  0.00    -0.454 OA
ATOM     31  O   LIG    1       -2.178  28.937  60.765  0.00  0.00    -0.287 OA
ATOM     32  C   LIG    1       -1.472  32.124  62.268  0.00  0.00    +0.146 A 
ATOM     35  C   LIG    1       -0.421  32.930  62.701  0.00  0.00    +0.093 A 
ENDROOT
BRANCH  19  20
ATOM     20  C   LIG    1       -5.132  32.461  62.211  0.00  0.00    +0.021 A 
ATOM     21  C   LIG    1       -6.290  31.819  61.768  0.00  0.00    +0.015 A 
ATOM     22  C   LIG    1       -7.538  32.408  61.972  0.00  0.00    +0.050 A 
ATOM     23  C   LIG    1       -7.631  33.640  62.620  0.00  0.00    +0.158 A 
ATOM     24  C   LIG    1       -6.475  34.284  63.062  0.00  0.00    +0.159 A 
ATOM     29  C   LIG    1       -5.227  33.695  62.858  0.00  0.00    +0.060 A 
BRANCH  24  25
ATOM     25  O   LIG    1       -6.555  35.487  63.698  0.00  0.00    -0.503 OA
ATOM     26  H   LIG    1       -7.082  35.371  64.507  0.00  0.00    +0.292 HD
ENDBRANCH  24  25
BRANCH  23  27
ATOM     27  O   LIG    1       -8.855  34.205  62.812  0.00  0.00    -0.503 OA
ATOM     28  H   LIG    1       -9.326  34.238  61.961  0.00  0.00    +0.292 HD
ENDBRANCH  23  27
ENDBRANCH  19  20
BRANCH  15  33
ATOM     33  O   LIG    1        0.416  29.212  61.037  0.00  0.00    -0.506 OA
ATOM     34  H   LIG    1       -0.240  28.547  61.295  0.00  0.00    +0.292 HD
ENDBRANCH  15  33
BRANCH  13  12
ATOM     12  O   LIG    1        1.926  33.270  62.995  0.00  0.00    -0.461 OA
BRANCH  12   2
ATOM      1  O   LIG    1        1.754  33.425  65.316  0.00  0.00    -0.331 OA
ATOM      2  C   LIG    1        2.532  32.914  64.237  0.00  0.00    +0.339 C 
ATOM      3  C   LIG    1        3.939  33.510  64.260  0.00  0.00    +0.214 C 
ATOM      4  C   LIG    1        4.608  33.305  65.620  0.00  0.00    +0.180 C 
ATOM      5  C   LIG    1        3.678  33.716  66.762  0.00  0.00    +0.177 C 
ATOM     36  C   LIG    1        2.296  33.081  66.593  0.00  0.00    +0.179 C 
BRANCH   5   6
ATOM      6  O   LIG    1        4.241  33.298  68.003  0.00  0.00    -0.386 OA
ATOM      7  H   LIG    1        4.255  34.066  68.600  0.00  0.00    +0.210 HD
ENDBRANCH   5   6
BRANCH   4   8
ATOM      8  O   LIG    1        5.786  34.108  65.698  0.00  0.00    -0.386 OA
ATOM      9  H   LIG    1        6.526  33.572  65.364  0.00  0.00    +0.210 HD
ENDBRANCH   4   8
BRANCH   3  10
ATOM     10  O   LIG    1        4.716  32.868  63.250  0.00  0.00    -0.383 OA
ATOM     11  H   LIG    1        5.550  32.572  63.653  0.00  0.00    +0.210 HD
ENDBRANCH   3  10
BRANCH  36  37
ATOM     37  C   LIG    1        1.316  33.570  67.655  0.00  0.00    +0.190 C 
BRANCH  37  38
ATOM     38  O   LIG    1        1.584  34.935  67.920  0.00  0.00    -0.392 OA
ATOM     39  H   LIG    1        2.479  35.130  67.592  0.00  0.00    +0.210 HD
ENDBRANCH  37  38
ENDBRANCH  36  37
ENDBRANCH  12   2
ENDBRANCH  13  12
TORSDOF 11
ENDMDL
MODEL 4
REMARK VINA RESULT:      -7.9      1.978      2.567
REMARK  Name = 5280637
REMARK                            x       y       z     vdW  Elec       q    Type
REMARK                         _______ _______ _______ _____ _____    ______ ____
ROOT
ATOM     13  C   LIG    1       -4.614  31.836  62.789  0.00  0.00    +0.131 A 
ATOM     14  C   LIG    1       -4.869  30.790  63.676  0.00  0.00    +0.092 A 
ATOM     15  C   LIG    1       -6.005  29.997  63.517  0.00  0.00    +0.135 A 
ATOM     16  C   LIG    1       -6.885  30.257  62.465  0.00  0.00    +0.105 A 
ATOM     17  C   LIG    1       -8.092  29.438  62.272  0.00  0.00    +0.197 A 
ATOM     18  C   LIG    1       -8.951  29.801  61.126  0.00  0.00    +0.098 A 
ATOM     19  C   LIG    1       -8.596  30.828  60.337  0.00  0.00    +0.139 A 
ATOM     30  O   LIG    1       -7.462  31.602  60.526  0.00  0.00    -0.454 OA
ATOM     31  O   LIG    1       -8.377  28.509  63.014  0.00  0.00    -0.287 OA
ATOM     32  C   LIG    1       -6.632  31.301  61.577  0.00  0.00    +0.146 A 
ATOM     35  C   LIG    1       -5.496  32.094  61.738  0.00  0.00    +0.093 A 
ENDROOT
BRANCH  19  20
ATOM     20  C   LIG    1       -9.419  31.241  59.182  0.00  0.00    +0.021 A 
ATOM     21  C   LIG    1       -9.963  32.526  59.133  0.00  0.00    +0.015 A 
ATOM     22  C   LIG    1      -10.741  32.916  58.044  0.00  0.00    +0.050 A 
ATOM     23  C   LIG    1      -10.978  32.022  56.999  0.00  0.00    +0.158 A 
ATOM     24  C   LIG    1      -10.437  30.737  57.047  0.00  0.00    +0.159 A 
ATOM     29  C   LIG    1       -9.658  30.347  58.136  0.00  0.00    +0.060 A 
BRANCH  24  25
ATOM     25  O   LIG    1      -10.660  29.856  56.031  0.00  0.00    -0.503 OA
ATOM     26  H   LIG    1      -10.939  29.008  56.417  0.00  0.00    +0.292 HD
ENDBRANCH  24  25
BRANCH  23  27
ATOM     27  O   LIG    1      -11.740  32.414  55.941  0.00  0.00    -0.503 OA
ATOM     28  H   LIG    1      -12.198  31.638  55.575  0.00  0.00    +0.292 HD
ENDBRANCH  23  27
ENDBRANCH  19  20
BRANCH  15  33
ATOM     33  O   LIG    1       -6.209  28.988  64.411  0.00  0.00    -0.506 OA
ATOM     34  H   LIG    1       -7.132  28.975  64.705  0.00  0.00    +0.292 HD
ENDBRANCH  15  33
BRANCH  13  12
ATOM     12  O   LIG    1       -3.502  32.610  62.949  0.00  0.00    -0.461 OA
BRANCH  12   2
ATOM      1  O   LIG    1       -1.566  31.635  62.086  0.00  0.00    -0.331 OA
ATOM      2  C   LIG    1       -2.572  32.621  61.868  0.00  0.00    +0.339 C 
ATOM      3  C   LIG    1       -1.949  34.016  61.798  0.00  0.00    +0.214 C 
ATOM      4  C   LIG    1       -0.828  34.074  60.759  0.00  0.00    +0.180 C 
ATOM      5  C   LIG    1        0.143  32.905  60.928  0.00  0.00    +0.177 C 
ATOM     36  C   LIG    1       -0.614  31.579  61.023  0.00  0.00    +0.179 C 
BRANCH   5   6
ATOM      6  O   LIG    1        1.030  32.864  59.813  0.00  0.00    -0.386 OA
ATOM      7  H   LIG    1        0.899  32.015  59.357  0.00  0.00    +0.210 HD
ENDBRANCH   5   6
BRANCH   4   8
ATOM      8  O   LIG    1       -0.093  35.288  60.920  0.00  0.00    -0.386 OA
ATOM      9  H   LIG    1        0.149  35.601  60.031  0.00  0.00    +0.210 HD
ENDBRANCH   4   8
BRANCH   3  10
ATOM     10  O   LIG    1       -2.972  34.946  61.443  0.00  0.00    -0.383 OA
ATOM     11  H   LIG    1       -3.770  34.725  61.953  0.00  0.00    +0.210 HD
ENDBRANCH   3  10
BRANCH  36  37
ATOM     37  C   LIG    1        0.327  30.412  61.309  0.00  0.00    +0.190 C 
BRANCH  37  38
ATOM     38  O   LIG    1       -0.162  29.265  60.637  0.00  0.00    -0.392 OA
ATOM     39  H   LIG    1        0.487  28.551  60.763  0.00  0.00    +0.210 HD
ENDBRANCH  37  38
ENDBRANCH  36  37
ENDBRANCH  12   2
ENDBRANCH  13  12
TORSDOF 11
ENDMDL
MODEL 5
REMARK VINA RESULT:      -7.7      1.249      2.595
REMARK  Name = 5280637
REMARK                            x       y       z     vdW  Elec       q    Type
REMARK                         _______ _______ _______ _____ _____    ______ ____
ROOT
ATOM     13  C   LIG    1       -5.082  31.707  62.490  0.00  0.00    +0.131 A 
ATOM     14  C   LIG    1       -5.387  32.617  63.502  0.00  0.00    +0.092 A 
ATOM     15  C   LIG    1       -6.591  33.321  63.473  0.00  0.00    +0.135 A 
ATOM     16  C   LIG    1       -7.489  33.107  62.425  0.00  0.00    +0.105 A 
ATOM     17  C   LIG    1       -8.766  33.834  62.366  0.00  0.00    +0.197 A 
ATOM     18  C   LIG    1       -9.638  33.528  61.214  0.00  0.00    +0.098 A 
ATOM     19  C   LIG    1       -9.237  32.625  60.305  0.00  0.00    +0.139 A 
ATOM     30  O   LIG    1       -8.029  31.947  60.359  0.00  0.00    -0.454 OA
ATOM     31  O   LIG    1       -9.094  34.648  63.217  0.00  0.00    -0.287 OA
ATOM     32  C   LIG    1       -7.186  32.196  61.413  0.00  0.00    +0.146 A 
ATOM     35  C   LIG    1       -5.981  31.495  61.444  0.00  0.00    +0.093 A 
ENDROOT
BRANCH  19  20
ATOM     20  C   LIG    1      -10.063  32.286  59.129  0.00  0.00    +0.021 A 
ATOM     21  C   LIG    1      -11.268  32.955  58.902  0.00  0.00    +0.015 A 
ATOM     22  C   LIG    1      -12.049  32.633  57.792  0.00  0.00    +0.050 A 
ATOM     23  C   LIG    1      -11.627  31.642  56.905  0.00  0.00    +0.158 A 
ATOM     24  C   LIG    1      -10.424  30.972  57.130  0.00  0.00    +0.159 A 
ATOM     29  C   LIG    1       -9.643  31.293  58.240  0.00  0.00    +0.060 A 
BRANCH  24  25
ATOM     25  O   LIG    1      -10.002  30.003  56.270  0.00  0.00    -0.503 OA
ATOM     26  H   LIG    1       -9.170  30.298  55.862  0.00  0.00    +0.292 HD
ENDBRANCH  24  25
BRANCH  23  27
ATOM     27  O   LIG    1      -12.399  31.337  55.826  0.00  0.00    -0.503 OA
ATOM     28  H   LIG    1      -12.711  30.419  55.908  0.00  0.00    +0.292 HD
ENDBRANCH  23  27
ENDBRANCH  19  20
BRANCH  15  33
ATOM     33  O   LIG    1       -6.842  34.199  64.484  0.00  0.00    -0.506 OA
ATOM     34  H   LIG    1       -6.941  35.098  64.137  0.00  0.00    +0.292 HD
ENDBRANCH  15  33
BRANCH  13  12
ATOM     12  O   LIG    1       -3.902  31.022  62.523  0.00  0.00    -0.461 OA
BRANCH  12   2
ATOM      1  O   LIG    1       -2.945  32.957  61.638  0.00  0.00    -0.331 OA
ATOM      2  C   LIG    1       -2.710  31.801  62.438  0.00  0.00    +0.339 C 
ATOM      3  C   LIG    1       -1.622  30.927  61.812  0.00  0.00    +0.214 C 
ATOM      4  C   LIG    1       -0.349  31.731  61.545  0.00  0.00    +0.180 C 
ATOM      5  C   LIG    1       -0.663  33.043  60.826  0.00  0.00    +0.177 C 
ATOM     36  C   LIG    1       -1.792  33.794  61.534  0.00  0.00    +0.179 C 
BRANCH   5   6
ATOM      6  O   LIG    1        0.505  33.859  60.802  0.00  0.00    -0.386 OA
ATOM      7  H   LIG    1        0.509  34.354  59.966  0.00  0.00    +0.210 HD
ENDBRANCH   5   6
BRANCH   4   8
ATOM      8  O   LIG    1        0.529  30.969  60.715  0.00  0.00    -0.386 OA
ATOM      9  H   LIG    1        1.369  30.869  61.195  0.00  0.00    +0.210 HD
ENDBRANCH   4   8
BRANCH   3  10
ATOM     10  O   LIG    1       -1.328  29.861  62.715  0.00  0.00    -0.383 OA
ATOM     11  H   LIG    1       -0.727  30.202  63.398  0.00  0.00    +0.210 HD
ENDBRANCH   3  10
BRANCH  36  37
ATOM     37  C   LIG    1       -2.202  35.048  60.768  0.00  0.00    +0.190 C 
BRANCH  37  38
ATOM     38  O   LIG    1       -1.358  36.114  61.164  0.00  0.00    -0.392 OA
ATOM     39  H   LIG    1       -1.825  36.946  60.973  0.00  0.00    +0.210 HD
ENDBRANCH  37  38
ENDBRANCH  36  37
ENDBRANCH  12   2
ENDBRANCH  13  12
TORSDOF 11
ENDMDL
MODEL 6
REMARK VINA RESULT:      -7.7      6.604     12.949
REMARK  Name = 5280637
REMARK                            x       y       z     vdW  Elec       q    Type
REMARK                         _______ _______ _______ _____ _____    ______ ____
ROOT
ATOM     13  C   LIG    1        2.744  31.970  63.354  0.00  0.00    +0.131 A 
ATOM     14  C   LIG    1        3.104  33.306  63.534  0.00  0.00    +0.092 A 
ATOM     15  C   LIG    1        3.851  33.687  64.649  0.00  0.00    +0.135 A 
ATOM     16  C   LIG    1        4.237  32.722  65.583  0.00  0.00    +0.105 A 
ATOM     17  C   LIG    1        5.023  33.093  66.768  0.00  0.00    +0.197 A 
ATOM     18  C   LIG    1        5.377  31.992  67.688  0.00  0.00    +0.098 A 
ATOM     19  C   LIG    1        4.976  30.743  67.403  0.00  0.00    +0.139 A 
ATOM     30  O   LIG    1        4.228  30.397  66.288  0.00  0.00    -0.454 OA
ATOM     31  O   LIG    1        5.369  34.245  66.989  0.00  0.00    -0.287 OA
ATOM     32  C   LIG    1        3.878  31.386  65.404  0.00  0.00    +0.146 A 
ATOM     35  C   LIG    1        3.130  31.008  64.289  0.00  0.00    +0.093 A 
ENDROOT
BRANCH  19  20
ATOM     20  C   LIG    1        5.293  29.604  68.290  0.00  0.00    +0.021 A 
ATOM     21  C   LIG    1        4.297  29.044  69.093  0.00  0.00    +0.015 A 
ATOM     22  C   LIG    1        4.596  27.970  69.931  0.00  0.00    +0.050 A 
ATOM     23  C   LIG    1        5.892  27.453  69.967  0.00  0.00    +0.158 A 
ATOM     24  C   LIG    1        6.888  28.012  69.167  0.00  0.00    +0.159 A 
ATOM     29  C   LIG    1        6.589  29.086  68.329  0.00  0.00    +0.060 A 
BRANCH  24  25
ATOM     25  O   LIG    1        8.156  27.513  69.194  0.00  0.00    -0.503 OA
ATOM     26  H   LIG    1        8.777  28.259  69.244  0.00  0.00    +0.292 HD
ENDBRANCH  24  25
BRANCH  23  27
ATOM     27  O   LIG    1        6.171  26.404  70.791  0.00  0.00    -0.503 OA
ATOM     28  H   LIG    1        6.862  25.856  70.382  0.00  0.00    +0.292 HD
ENDBRANCH  23  27
ENDBRANCH  19  20
BRANCH  15  33
ATOM     33  O   LIG    1        4.177  35.003  64.779  0.00  0.00    -0.506 OA
ATOM     34  H   LIG    1        3.478  35.482  65.249  0.00  0.00    +0.292 HD
ENDBRANCH  15  33
BRANCH  13  12
ATOM     12  O   LIG    1        2.013  31.603  62.263  0.00  0.00    -0.461 OA
BRANCH  12   2
ATOM      1  O   LIG    1        0.093  30.288  62.094  0.00  0.00    -0.331 OA
ATOM      2  C   LIG    1        0.595  31.581  62.423  0.00  0.00    +0.339 C 
ATOM      3  C   LIG    1        0.001  32.639  61.493  0.00  0.00    +0.214 C 
ATOM      4  C   LIG    1       -1.527  32.582  61.489  0.00  0.00    +0.180 C 
ATOM      5  C   LIG    1       -2.026  31.151  61.293  0.00  0.00    +0.177 C 
ATOM     36  C   LIG    1       -1.324  30.193  62.258  0.00  0.00    +0.179 C 
BRANCH   5   6
ATOM      6  O   LIG    1       -3.432  31.106  61.524  0.00  0.00    -0.386 OA
ATOM      7  H   LIG    1       -3.848  31.795  60.978  0.00  0.00    +0.210 HD
ENDBRANCH   5   6
BRANCH   4   8
ATOM      8  O   LIG    1       -2.030  33.378  60.414  0.00  0.00    -0.386 OA
ATOM      9  H   LIG    1       -1.276  33.602  59.841  0.00  0.00    +0.210 HD
ENDBRANCH   4   8
BRANCH   3  10
ATOM     10  O   LIG    1        0.426  33.924  61.947  0.00  0.00    -0.383 OA
ATOM     11  H   LIG    1       -0.267  34.568  61.719  0.00  0.00    +0.210 HD
ENDBRANCH   3  10
BRANCH  36  37
ATOM     37  C   LIG    1       -1.720  28.742  62.002  0.00  0.00    +0.190 C 
BRANCH  37  38
ATOM     38  O   LIG    1       -2.011  28.592  60.624  0.00  0.00    -0.392 OA
ATOM     39  H   LIG    1       -2.342  29.446  60.297  0.00  0.00    +0.210 HD
ENDBRANCH  37  38
ENDBRANCH  36  37
ENDBRANCH  12   2
ENDBRANCH  13  12
TORSDOF 11
ENDMDL
MODEL 7
REMARK VINA RESULT:      -7.6      8.955     13.264
REMARK  Name = 5280637
REMARK                            x       y       z     vdW  Elec       q    Type
REMARK                         _______ _______ _______ _____ _____    ______ ____
ROOT
ATOM     13  C   LIG    1        5.695  29.779  67.448  0.00  0.00    +0.131 A 
ATOM     14  C   LIG    1        6.283  30.891  68.050  0.00  0.00    +0.092 A 
ATOM     15  C   LIG    1        5.915  32.178  67.656  0.00  0.00    +0.135 A 
ATOM     16  C   LIG    1        4.954  32.344  66.656  0.00  0.00    +0.105 A 
ATOM     17  C   LIG    1        4.546  33.688  66.219  0.00  0.00    +0.197 A 
ATOM     18  C   LIG    1        3.521  33.746  65.156  0.00  0.00    +0.098 A 
ATOM     19  C   LIG    1        3.025  32.602  64.659  0.00  0.00    +0.139 A 
ATOM     30  O   LIG    1        3.417  31.337  65.068  0.00  0.00    -0.454 OA
ATOM     31  O   LIG    1        5.024  34.705  66.701  0.00  0.00    -0.287 OA
ATOM     32  C   LIG    1        4.365  31.233  66.054  0.00  0.00    +0.146 A 
ATOM     35  C   LIG    1        4.735  29.948  66.449  0.00  0.00    +0.093 A 
ENDROOT
BRANCH  19  20
ATOM     20  C   LIG    1        2.005  32.598  63.590  0.00  0.00    +0.021 A 
ATOM     21  C   LIG    1        0.678  32.280  63.888  0.00  0.00    +0.015 A 
ATOM     22  C   LIG    1       -0.284  32.275  62.879  0.00  0.00    +0.050 A 
ATOM     23  C   LIG    1        0.077  32.589  61.569  0.00  0.00    +0.158 A 
ATOM     24  C   LIG    1        1.402  32.907  61.268  0.00  0.00    +0.159 A 
ATOM     29  C   LIG    1        2.364  32.912  62.278  0.00  0.00    +0.060 A 
BRANCH  24  25
ATOM     25  O   LIG    1        1.765  33.217  59.992  0.00  0.00    -0.503 OA
ATOM     26  H   LIG    1        1.382  34.082  59.767  0.00  0.00    +0.292 HD
ENDBRANCH  24  25
BRANCH  23  27
ATOM     27  O   LIG    1       -0.872  32.580  60.592  0.00  0.00    -0.503 OA
ATOM     28  H   LIG    1       -0.434  32.609  59.724  0.00  0.00    +0.292 HD
ENDBRANCH  23  27
ENDBRANCH  19  20
BRANCH  15  33
ATOM     33  O   LIG    1        6.520  33.232  68.273  0.00  0.00    -0.506 OA
ATOM     34  H   LIG    1        5.935  34.004  68.279  0.00  0.00    +0.292 HD
ENDBRANCH  15  33
BRANCH  13  12
ATOM     12  O   LIG    1        6.059  28.523  67.836  0.00  0.00    -0.461 OA
BRANCH  12   2
ATOM      1  O   LIG    1        8.125  28.406  68.913  0.00  0.00    -0.331 OA
ATOM      2  C   LIG    1        6.712  28.409  69.100  0.00  0.00    +0.339 C 
ATOM      3  C   LIG    1        6.254  27.104  69.750  0.00  0.00    +0.214 C 
ATOM      4  C   LIG    1        7.020  26.828  71.044  0.00  0.00    +0.180 C 
ATOM      5  C   LIG    1        8.527  26.991  70.841  0.00  0.00    +0.177 C 
ATOM     36  C   LIG    1        8.840  28.319  70.148  0.00  0.00    +0.179 C 
BRANCH   5   6
ATOM      6  O   LIG    1        9.180  26.954  72.107  0.00  0.00    -0.386 OA
ATOM      7  H   LIG    1       10.036  27.408  72.016  0.00  0.00    +0.210 HD
ENDBRANCH   5   6
BRANCH   4   8
ATOM      8  O   LIG    1        6.774  25.485  71.466  0.00  0.00    -0.386 OA
ATOM      9  H   LIG    1        7.306  24.900  70.899  0.00  0.00    +0.210 HD
ENDBRANCH   4   8
BRANCH   3  10
ATOM     10  O   LIG    1        4.860  27.212  70.039  0.00  0.00    -0.383 OA
ATOM     11  H   LIG    1        4.711  26.867  70.936  0.00  0.00    +0.210 HD
ENDBRANCH   3  10
BRANCH  36  37
ATOM     37  C   LIG    1       10.326  28.452  69.828  0.00  0.00    +0.190 C 
BRANCH  37  38
ATOM     38  O   LIG    1       10.892  27.156  69.772  0.00  0.00    -0.392 OA
ATOM     39  H   LIG    1       11.821  27.226  70.050  0.00  0.00    +0.210 HD
ENDBRANCH  37  38
ENDBRANCH  36  37
ENDBRANCH  12   2
ENDBRANCH  13  12
TORSDOF 11
ENDMDL
MODEL 8
REMARK VINA RESULT:      -7.4      7.421     13.841
REMARK  Name = 5280637
REMARK                            x       y       z     vdW  Elec       q    Type
REMARK                         _______ _______ _______ _____ _____    ______ ____
ROOT
ATOM     13  C   LIG    1        1.998  31.040  65.478  0.00  0.00    +0.131 A 
ATOM     14  C   LIG    1        2.099  32.429  65.405  0.00  0.00    +0.092 A 
ATOM     15  C   LIG    1        3.187  33.085  65.984  0.00  0.00    +0.135 A 
ATOM     16  C   LIG    1        4.172  32.340  66.637  0.00  0.00    +0.105 A 
ATOM     17  C   LIG    1        5.329  33.002  67.258  0.00  0.00    +0.197 A 
ATOM     18  C   LIG    1        6.310  32.117  67.919  0.00  0.00    +0.098 A 
ATOM     19  C   LIG    1        6.105  30.791  67.917  0.00  0.00    +0.139 A 
ATOM     30  O   LIG    1        5.010  30.170  67.338  0.00  0.00    -0.454 OA
ATOM     31  O   LIG    1        5.478  34.216  67.235  0.00  0.00    -0.287 OA
ATOM     32  C   LIG    1        4.072  30.951  66.709  0.00  0.00    +0.146 A 
ATOM     35  C   LIG    1        2.984  30.299  66.130  0.00  0.00    +0.093 A 
ENDROOT
BRANCH  19  20
ATOM     20  C   LIG    1        7.047  29.858  68.570  0.00  0.00    +0.021 A 
ATOM     21  C   LIG    1        8.250  30.332  69.097  0.00  0.00    +0.015 A 
ATOM     22  C   LIG    1        9.140  29.451  69.712  0.00  0.00    +0.050 A 
ATOM     23  C   LIG    1        8.829  28.094  69.802  0.00  0.00    +0.158 A 
ATOM     24  C   LIG    1        7.628  27.618  69.275  0.00  0.00    +0.159 A 
ATOM     29  C   LIG    1        6.738  28.499  68.660  0.00  0.00    +0.060 A 
BRANCH  24  25
ATOM     25  O   LIG    1        7.314  26.295  69.358  0.00  0.00    -0.503 OA
ATOM     26  H   LIG    1        8.043  25.835  69.807  0.00  0.00    +0.292 HD
ENDBRANCH  24  25
BRANCH  23  27
ATOM     27  O   LIG    1        9.707  27.244  70.403  0.00  0.00    -0.503 OA
ATOM     28  H   LIG    1        9.343  26.968  71.262  0.00  0.00    +0.292 HD
ENDBRANCH  23  27
ENDBRANCH  19  20
BRANCH  15  33
ATOM     33  O   LIG    1        3.239  34.442  65.887  0.00  0.00    -0.506 OA
ATOM     34  H   LIG    1        2.631  34.758  65.202  0.00  0.00    +0.292 HD
ENDBRANCH  15  33
BRANCH  13  12
ATOM     12  O   LIG    1        0.933  30.404  64.910  0.00  0.00    -0.461 OA
BRANCH  12   2
ATOM      1  O   LIG    1       -0.862  31.459  63.858  0.00  0.00    -0.331 OA
ATOM      2  C   LIG    1        0.453  30.940  63.678  0.00  0.00    +0.339 C 
ATOM      3  C   LIG    1        0.447  29.812  62.646  0.00  0.00    +0.214 C 
ATOM      4  C   LIG    1       -0.197  30.263  61.334  0.00  0.00    +0.180 C 
ATOM      5  C   LIG    1       -1.534  30.960  61.583  0.00  0.00    +0.177 C 
ATOM     36  C   LIG    1       -1.393  32.035  62.663  0.00  0.00    +0.179 C 
BRANCH   5   6
ATOM      6  O   LIG    1       -1.985  31.562  60.373  0.00  0.00    -0.386 OA
ATOM      7  H   LIG    1       -1.313  32.206  60.090  0.00  0.00    +0.210 HD
ENDBRANCH   5   6
BRANCH   4   8
ATOM      8  O   LIG    1       -0.439  29.123  60.507  0.00  0.00    -0.386 OA
ATOM      9  H   LIG    1       -1.217  28.663  60.867  0.00  0.00    +0.210 HD
ENDBRANCH   4   8
BRANCH   3  10
ATOM     10  O   LIG    1        1.798  29.422  62.401  0.00  0.00    -0.383 OA
ATOM     11  H   LIG    1        2.091  28.868  63.145  0.00  0.00    +0.210 HD
ENDBRANCH   3  10
BRANCH  36  37
ATOM     37  C   LIG    1       -2.738  32.664  63.013  0.00  0.00    +0.190 C 
BRANCH  37  38
ATOM     38  O   LIG    1       -3.767  31.852  62.477  0.00  0.00    -0.392 OA
ATOM     39  H   LIG    1       -4.326  31.556  63.217  0.00  0.00    +0.210 HD
ENDBRANCH  37  38
ENDBRANCH  36  37
ENDBRANCH  12   2
ENDBRANCH  13  12
TORSDOF 11
ENDMDL
MODEL 9
REMARK VINA RESULT:      -7.4      4.923      7.999
REMARK  Name = 5280637
REMARK                            x       y       z     vdW  Elec       q    Type
REMARK                         _______ _______ _______ _____ _____    ______ ____
ROOT
ATOM     13  C   LIG    1        1.378  31.690  64.634  0.00  0.00    +0.131 A 
ATOM     14  C   LIG    1        1.903  30.699  63.804  0.00  0.00    +0.092 A 
ATOM     15  C   LIG    1        1.116  30.138  62.798  0.00  0.00    +0.135 A 
ATOM     16  C   LIG    1       -0.199  30.576  62.627  0.00  0.00    +0.105 A 
ATOM     17  C   LIG    1       -1.053  30.002  61.576  0.00  0.00    +0.197 A 
ATOM     18  C   LIG    1       -2.426  30.541  61.485  0.00  0.00    +0.098 A 
ATOM     19  C   LIG    1       -2.814  31.501  62.338  0.00  0.00    +0.139 A 
ATOM     30  O   LIG    1       -2.009  32.034  63.333  0.00  0.00    -0.454 OA
ATOM     31  O   LIG    1       -0.658  29.129  60.817  0.00  0.00    -0.287 OA
ATOM     32  C   LIG    1       -0.725  31.567  63.455  0.00  0.00    +0.146 A 
ATOM     35  C   LIG    1        0.063  32.125  64.461  0.00  0.00    +0.093 A 
ENDROOT
BRANCH  19  20
ATOM     20  C   LIG    1       -4.177  32.071  62.300  0.00  0.00    +0.021 A 
ATOM     21  C   LIG    1       -5.268  31.257  61.989  0.00  0.00    +0.015 A 
ATOM     22  C   LIG    1       -6.554  31.795  61.952  0.00  0.00    +0.050 A 
ATOM     23  C   LIG    1       -6.752  33.149  62.225  0.00  0.00    +0.158 A 
ATOM     24  C   LIG    1       -5.664  33.964  62.535  0.00  0.00    +0.159 A 
ATOM     29  C   LIG    1       -4.377  33.426  62.572  0.00  0.00    +0.060 A 
BRANCH  24  25
ATOM     25  O   LIG    1       -5.846  35.287  62.805  0.00  0.00    -0.503 OA
ATOM     26  H   LIG    1       -5.589  35.798  62.019  0.00  0.00    +0.292 HD
ENDBRANCH  24  25
BRANCH  23  27
ATOM     27  O   LIG    1       -8.013  33.663  62.184  0.00  0.00    -0.503 OA
ATOM     28  H   LIG    1       -8.628  33.027  62.589  0.00  0.00    +0.292 HD
ENDBRANCH  23  27
ENDBRANCH  19  20
BRANCH  15  33
ATOM     33  O   LIG    1        1.675  29.173  62.015  0.00  0.00    -0.506 OA
ATOM     34  H   LIG    1        2.642  29.223  62.051  0.00  0.00    +0.292 HD
ENDBRANCH  15  33
BRANCH  13  12
ATOM     12  O   LIG    1        2.152  32.235  65.617  0.00  0.00    -0.461 OA
BRANCH  12   2
ATOM      1  O   LIG    1        3.418  30.774  66.923  0.00  0.00    -0.331 OA
ATOM      2  C   LIG    1        3.443  31.659  65.806  0.00  0.00    +0.339 C 
ATOM      3  C   LIG    1        4.435  32.798  66.047  0.00  0.00    +0.214 C 
ATOM      4  C   LIG    1        5.820  32.262  66.408  0.00  0.00    +0.180 C 
ATOM      5  C   LIG    1        5.734  31.196  67.501  0.00  0.00    +0.177 C 
ATOM     36  C   LIG    1        4.679  30.143  67.151  0.00  0.00    +0.179 C 
BRANCH   5   6
ATOM      6  O   LIG    1        7.003  30.563  67.644  0.00  0.00    -0.386 OA
ATOM      7  H   LIG    1        7.174  30.049  66.837  0.00  0.00    +0.210 HD
ENDBRANCH   5   6
BRANCH   4   8
ATOM      8  O   LIG    1        6.632  33.332  66.896  0.00  0.00    -0.386 OA
ATOM      9  H   LIG    1        6.912  33.858  66.127  0.00  0.00    +0.210 HD
ENDBRANCH   4   8
BRANCH   3  10
ATOM     10  O   LIG    1        4.524  33.574  64.852  0.00  0.00    -0.383 OA
ATOM     11  H   LIG    1        5.060  34.363  65.045  0.00  0.00    +0.210 HD
ENDBRANCH   3  10
BRANCH  36  37
ATOM     37  C   LIG    1        4.492  29.135  68.280  0.00  0.00    +0.190 C 
BRANCH  37  38
ATOM     38  O   LIG    1        3.278  28.440  68.066  0.00  0.00    -0.392 OA
ATOM     39  H   LIG    1        3.096  27.910  68.861  0.00  0.00    +0.210 HD
ENDBRANCH  37  38
ENDBRANCH  36  37
ENDBRANCH  12   2
ENDBRANCH  13  12
TORSDOF 11
ENDMDL
