MODEL 1
REMARK VINA RESULT:      -5.9      0.000      0.000
REMARK  Name = 370
REMARK                            x       y       z     vdW  Elec       q    Type
REMARK                         _______ _______ _______ _____ _____    ______ ____
ROOT
ATOM      3  C   LIG    1       14.842 145.574  28.034  0.00  0.00    +0.201 A 
ATOM      4  C   LIG    1       15.122 144.401  27.333  0.00  0.00    +0.163 A 
ATOM      5  C   LIG    1       14.376 143.248  27.577  0.00  0.00    +0.064 A 
ATOM      6  C   LIG    1       13.351 143.267  28.524  0.00  0.00    +0.066 A 
ATOM     11  C   LIG    1       13.072 144.440  29.224  0.00  0.00    +0.064 A 
ATOM     14  C   LIG    1       13.817 145.593  28.981  0.00  0.00    +0.163 A 
ENDROOT
BRANCH   3   1
ATOM      1  O   LIG    1       15.570 146.702  27.795  0.00  0.00    -0.501 OA
ATOM      2  H   LIG    1       15.196 147.427  28.325  0.00  0.00    +0.292 HD
ENDBRANCH   3   1
BRANCH   6   7
ATOM      7  C   LIG    1       12.572 142.065  28.778  0.00  0.00    +0.337 C 
ATOM      8  O   LIG    1       11.375 142.039  29.081  0.00  0.00    -0.245 OA
BRANCH   7   9
ATOM      9  O   LIG    1       13.311 140.930  28.646  0.00  0.00    -0.477 OA
ATOM     10  H   LIG    1       14.149 140.978  29.155  0.00  0.00    +0.295 HD
ENDBRANCH   7   9
ENDBRANCH   6   7
BRANCH   4  12
ATOM     12  O   LIG    1       16.119 144.369  26.405  0.00  0.00    -0.503 OA
ATOM     13  H   LIG    1       16.722 145.112  26.579  0.00  0.00    +0.292 HD
ENDBRANCH   4  12
BRANCH  14  15
ATOM     15  O   LIG    1       13.535 146.733  29.672  0.00  0.00    -0.503 OA
ATOM     16  H   LIG    1       13.846 146.632  30.589  0.00  0.00    +0.292 HD
ENDBRANCH  14  15
TORSDOF 5
ENDMDL
MODEL 2
REMARK VINA RESULT:      -5.4     29.219     30.707
REMARK  Name = 370
REMARK                            x       y       z     vdW  Elec       q    Type
REMARK                         _______ _______ _______ _____ _____    ______ ____
ROOT
ATOM      3  C   LIG    1       37.907 153.233  45.247  0.00  0.00    +0.201 A 
ATOM      4  C   LIG    1       36.524 153.292  45.070  0.00  0.00    +0.163 A 
ATOM      5  C   LIG    1       35.908 154.512  44.791  0.00  0.00    +0.064 A 
ATOM      6  C   LIG    1       36.674 155.674  44.690  0.00  0.00    +0.066 A 
ATOM     11  C   LIG    1       38.056 155.614  44.866  0.00  0.00    +0.064 A 
ATOM     14  C   LIG    1       38.673 154.395  45.145  0.00  0.00    +0.163 A 
ENDROOT
BRANCH   3   1
ATOM      1  O   LIG    1       38.509 152.041  45.518  0.00  0.00    -0.501 OA
ATOM      2  H   LIG    1       38.827 152.060  46.438  0.00  0.00    +0.292 HD
ENDBRANCH   3   1
BRANCH   6   7
ATOM      7  C   LIG    1       36.032 156.945  44.398  0.00  0.00    +0.337 C 
ATOM      8  O   LIG    1       34.926 157.301  44.818  0.00  0.00    -0.245 OA
BRANCH   7   9
ATOM      9  O   LIG    1       36.789 157.737  43.590  0.00  0.00    -0.477 OA
ATOM     10  H   LIG    1       36.725 157.466  42.649  0.00  0.00    +0.295 HD
ENDBRANCH   7   9
ENDBRANCH   6   7
BRANCH   4  12
ATOM     12  O   LIG    1       35.765 152.164  45.165  0.00  0.00    -0.503 OA
ATOM     13  H   LIG    1       35.653 151.796  44.271  0.00  0.00    +0.292 HD
ENDBRANCH   4  12
BRANCH  14  15
ATOM     15  O   LIG    1       40.023 154.350  45.317  0.00  0.00    -0.503 OA
ATOM     16  H   LIG    1       40.325 155.199  45.685  0.00  0.00    +0.292 HD
ENDBRANCH  14  15
TORSDOF 5
ENDMDL
MODEL 3
REMARK VINA RESULT:      -5.4     22.627     23.177
REMARK  Name = 370
REMARK                            x       y       z     vdW  Elec       q    Type
REMARK                         _______ _______ _______ _____ _____    ______ ____
ROOT
ATOM      3  C   LIG    1       29.986 140.557  12.054  0.00  0.00    +0.201 A 
ATOM      4  C   LIG    1       30.760 141.641  12.469  0.00  0.00    +0.163 A 
ATOM      5  C   LIG    1       31.545 141.538  13.616  0.00  0.00    +0.064 A 
ATOM      6  C   LIG    1       31.558 140.351  14.350  0.00  0.00    +0.066 A 
ATOM     11  C   LIG    1       30.784 139.268  13.935  0.00  0.00    +0.064 A 
ATOM     14  C   LIG    1       29.998 139.370  12.788  0.00  0.00    +0.163 A 
ENDROOT
BRANCH   3   1
ATOM      1  O   LIG    1       29.219 140.657  10.931  0.00  0.00    -0.501 OA
ATOM      2  H   LIG    1       28.738 141.502  10.963  0.00  0.00    +0.292 HD
ENDBRANCH   3   1
BRANCH   6   7
ATOM      7  C   LIG    1       32.378 140.244  15.547  0.00  0.00    +0.337 C 
ATOM      8  O   LIG    1       33.000 139.237  15.899  0.00  0.00    -0.245 OA
BRANCH   7   9
ATOM      9  O   LIG    1       32.398 141.397  16.269  0.00  0.00    -0.477 OA
ATOM     10  H   LIG    1       32.168 141.243  17.210  0.00  0.00    +0.295 HD
ENDBRANCH   7   9
ENDBRANCH   6   7
BRANCH   4  12
ATOM     12  O   LIG    1       30.759 142.805  11.760  0.00  0.00    -0.503 OA
ATOM     13  H   LIG    1       31.069 143.518  12.344  0.00  0.00    +0.292 HD
ENDBRANCH   4  12
BRANCH  14  15
ATOM     15  O   LIG    1       29.246 138.305  12.392  0.00  0.00    -0.503 OA
ATOM     16  H   LIG    1       29.204 138.290  11.420  0.00  0.00    +0.292 HD
ENDBRANCH  14  15
TORSDOF 5
ENDMDL
MODEL 4
REMARK VINA RESULT:      -5.4     22.625     23.150
REMARK  Name = 370
REMARK                            x       y       z     vdW  Elec       q    Type
REMARK                         _______ _______ _______ _____ _____    ______ ____
ROOT
ATOM      3  C   LIG    1       29.989 140.552  12.054  0.00  0.00    +0.201 A 
ATOM      4  C   LIG    1       29.999 139.366  12.789  0.00  0.00    +0.163 A 
ATOM      5  C   LIG    1       30.782 139.264  13.938  0.00  0.00    +0.064 A 
ATOM      6  C   LIG    1       31.557 140.348  14.353  0.00  0.00    +0.066 A 
ATOM     11  C   LIG    1       31.547 141.533  13.618  0.00  0.00    +0.064 A 
ATOM     14  C   LIG    1       30.764 141.635  12.469  0.00  0.00    +0.163 A 
ENDROOT
BRANCH   3   1
ATOM      1  O   LIG    1       29.223 140.652  10.931  0.00  0.00    -0.501 OA
ATOM      2  H   LIG    1       28.775 141.515  10.941  0.00  0.00    +0.292 HD
ENDBRANCH   3   1
BRANCH   6   7
ATOM      7  C   LIG    1       32.373 140.242  15.553  0.00  0.00    +0.337 C 
ATOM      8  O   LIG    1       32.985 139.232  15.914  0.00  0.00    -0.245 OA
BRANCH   7   9
ATOM      9  O   LIG    1       32.401 141.401  16.266  0.00  0.00    -0.477 OA
ATOM     10  H   LIG    1       32.092 141.269  17.189  0.00  0.00    +0.295 HD
ENDBRANCH   7   9
ENDBRANCH   6   7
BRANCH   4  12
ATOM     12  O   LIG    1       29.246 138.301  12.396  0.00  0.00    -0.503 OA
ATOM     13  H   LIG    1       29.839 137.633  12.010  0.00  0.00    +0.292 HD
ENDBRANCH   4  12
BRANCH  14  15
ATOM     15  O   LIG    1       30.763 142.798  11.759  0.00  0.00    -0.503 OA
ATOM     16  H   LIG    1       31.075 142.618  10.855  0.00  0.00    +0.292 HD
ENDBRANCH  14  15
TORSDOF 5
ENDMDL
MODEL 5
REMARK VINA RESULT:      -5.3     14.425     16.470
REMARK  Name = 370
REMARK                            x       y       z     vdW  Elec       q    Type
REMARK                         _______ _______ _______ _____ _____    ______ ____
ROOT
ATOM      3  C   LIG    1       22.548 155.610  31.623  0.00  0.00    +0.201 A 
ATOM      4  C   LIG    1       22.501 155.075  32.911  0.00  0.00    +0.163 A 
ATOM      5  C   LIG    1       23.593 155.220  33.767  0.00  0.00    +0.064 A 
ATOM      6  C   LIG    1       24.734 155.898  33.335  0.00  0.00    +0.066 A 
ATOM     11  C   LIG    1       24.780 156.432  32.047  0.00  0.00    +0.064 A 
ATOM     14  C   LIG    1       23.689 156.288  31.191  0.00  0.00    +0.163 A 
ENDROOT
BRANCH   3   1
ATOM      1  O   LIG    1       21.481 155.469  30.787  0.00  0.00    -0.501 OA
ATOM      2  H   LIG    1       20.729 155.132  31.304  0.00  0.00    +0.292 HD
ENDBRANCH   3   1
BRANCH   6   7
ATOM      7  C   LIG    1       25.872 156.050  34.227  0.00  0.00    +0.337 C 
ATOM      8  O   LIG    1       25.835 155.946  35.457  0.00  0.00    -0.245 OA
BRANCH   7   9
ATOM      9  O   LIG    1       27.024 156.327  33.558  0.00  0.00    -0.477 OA
ATOM     10  H   LIG    1       27.331 155.561  33.027  0.00  0.00    +0.295 HD
ENDBRANCH   7   9
ENDBRANCH   6   7
BRANCH   4  12
ATOM     12  O   LIG    1       21.393 154.412  33.346  0.00  0.00    -0.503 OA
ATOM     13  H   LIG    1       21.682 153.618  33.827  0.00  0.00    +0.292 HD
ENDBRANCH   4  12
BRANCH  14  15
ATOM     15  O   LIG    1       23.747 156.813  29.936  0.00  0.00    -0.503 OA
ATOM     16  H   LIG    1       24.377 156.296  29.404  0.00  0.00    +0.292 HD
ENDBRANCH  14  15
TORSDOF 5
ENDMDL
MODEL 6
REMARK VINA RESULT:      -5.3     14.482     16.268
REMARK  Name = 370
REMARK                            x       y       z     vdW  Elec       q    Type
REMARK                         _______ _______ _______ _____ _____    ______ ____
ROOT
ATOM      3  C   LIG    1       22.324 156.115  31.742  0.00  0.00    +0.201 A 
ATOM      4  C   LIG    1       23.519 156.701  31.322  0.00  0.00    +0.163 A 
ATOM      5  C   LIG    1       24.704 156.435  32.006  0.00  0.00    +0.064 A 
ATOM      6  C   LIG    1       24.697 155.583  33.111  0.00  0.00    +0.066 A 
ATOM     11  C   LIG    1       23.503 154.997  33.531  0.00  0.00    +0.064 A 
ATOM     14  C   LIG    1       22.317 155.263  32.848  0.00  0.00    +0.163 A 
ENDROOT
BRANCH   3   1
ATOM      1  O   LIG    1       21.165 156.375  31.074  0.00  0.00    -0.501 OA
ATOM      2  H   LIG    1       20.726 155.528  30.881  0.00  0.00    +0.292 HD
ENDBRANCH   3   1
BRANCH   6   7
ATOM      7  C   LIG    1       25.934 155.304  33.824  0.00  0.00    +0.337 C 
ATOM      8  O   LIG    1       26.235 154.222  34.338  0.00  0.00    -0.245 OA
BRANCH   7   9
ATOM      9  O   LIG    1       26.760 156.385  33.874  0.00  0.00    -0.477 OA
ATOM     10  H   LIG    1       26.299 157.181  34.216  0.00  0.00    +0.295 HD
ENDBRANCH   7   9
ENDBRANCH   6   7
BRANCH   4  12
ATOM     12  O   LIG    1       23.540 157.533  30.243  0.00  0.00    -0.503 OA
ATOM     13  H   LIG    1       23.789 158.423  30.549  0.00  0.00    +0.292 HD
ENDBRANCH   4  12
BRANCH  14  15
ATOM     15  O   LIG    1       21.156 154.686  33.268  0.00  0.00    -0.503 OA
ATOM     16  H   LIG    1       20.999 154.930  34.197  0.00  0.00    +0.292 HD
ENDBRANCH  14  15
TORSDOF 5
ENDMDL
MODEL 7
REMARK VINA RESULT:      -5.2     29.230     30.704
REMARK  Name = 370
REMARK                            x       y       z     vdW  Elec       q    Type
REMARK                         _______ _______ _______ _____ _____    ______ ____
ROOT
ATOM      3  C   LIG    1       37.892 153.242  45.245  0.00  0.00    +0.201 A 
ATOM      4  C   LIG    1       38.689 154.384  45.159  0.00  0.00    +0.163 A 
ATOM      5  C   LIG    1       38.109 155.620  44.875  0.00  0.00    +0.064 A 
ATOM      6  C   LIG    1       36.731 155.715  44.676  0.00  0.00    +0.066 A 
ATOM     11  C   LIG    1       35.934 154.574  44.763  0.00  0.00    +0.064 A 
ATOM     14  C   LIG    1       36.514 153.338  45.047  0.00  0.00    +0.163 A 
ENDROOT
BRANCH   3   1
ATOM      1  O   LIG    1       38.459 152.034  45.524  0.00  0.00    -0.501 OA
ATOM      2  H   LIG    1       38.003 151.652  46.294  0.00  0.00    +0.292 HD
ENDBRANCH   3   1
BRANCH   6   7
ATOM      7  C   LIG    1       36.126 157.004  44.381  0.00  0.00    +0.337 C 
ATOM      8  O   LIG    1       36.681 157.937  43.791  0.00  0.00    -0.245 OA
BRANCH   7   9
ATOM      9  O   LIG    1       34.844 157.092  44.831  0.00  0.00    -0.477 OA
ATOM     10  H   LIG    1       34.787 157.587  45.676  0.00  0.00    +0.295 HD
ENDBRANCH   7   9
ENDBRANCH   6   7
BRANCH   4  12
ATOM     12  O   LIG    1       40.036 154.305  45.353  0.00  0.00    -0.503 OA
ATOM     13  H   LIG    1       40.466 154.963  44.780  0.00  0.00    +0.292 HD
ENDBRANCH   4  12
BRANCH  14  15
ATOM     15  O   LIG    1       35.726 152.230  45.128  0.00  0.00    -0.503 OA
ATOM     16  H   LIG    1       35.695 151.929  46.053  0.00  0.00    +0.292 HD
ENDBRANCH  14  15
TORSDOF 5
ENDMDL
MODEL 8
REMARK VINA RESULT:      -5.1     28.924     30.241
REMARK  Name = 370
REMARK                            x       y       z     vdW  Elec       q    Type
REMARK                         _______ _______ _______ _____ _____    ______ ____
ROOT
ATOM      3  C   LIG    1       36.871 154.126  44.054  0.00  0.00    +0.201 A 
ATOM      4  C   LIG    1       35.555 154.504  44.320  0.00  0.00    +0.163 A 
ATOM      5  C   LIG    1       35.099 154.565  45.636  0.00  0.00    +0.064 A 
ATOM      6  C   LIG    1       35.958 154.247  46.688  0.00  0.00    +0.066 A 
ATOM     11  C   LIG    1       37.274 153.869  46.422  0.00  0.00    +0.064 A 
ATOM     14  C   LIG    1       37.731 153.808  45.106  0.00  0.00    +0.163 A 
ENDROOT
BRANCH   3   1
ATOM      1  O   LIG    1       37.317 154.067  42.767  0.00  0.00    -0.501 OA
ATOM      2  H   LIG    1       37.382 153.131  42.508  0.00  0.00    +0.292 HD
ENDBRANCH   3   1
BRANCH   6   7
ATOM      7  C   LIG    1       35.483 154.312  48.061  0.00  0.00    +0.337 C 
ATOM      8  O   LIG    1       34.509 154.964  48.451  0.00  0.00    -0.245 OA
BRANCH   7   9
ATOM      9  O   LIG    1       36.238 153.561  48.909  0.00  0.00    -0.477 OA
ATOM     10  H   LIG    1       37.176 153.850  48.916  0.00  0.00    +0.295 HD
ENDBRANCH   7   9
ENDBRANCH   6   7
BRANCH   4  12
ATOM     12  O   LIG    1       34.705 154.819  43.301  0.00  0.00    -0.503 OA
ATOM     13  H   LIG    1       34.184 155.597  43.568  0.00  0.00    +0.292 HD
ENDBRANCH   4  12
BRANCH  14  15
ATOM     15  O   LIG    1       39.018 153.436  44.859  0.00  0.00    -0.503 OA
ATOM     16  H   LIG    1       39.318 153.861  44.036  0.00  0.00    +0.292 HD
ENDBRANCH  14  15
TORSDOF 5
ENDMDL
MODEL 9
REMARK VINA RESULT:      -5.1     16.029     16.907
REMARK  Name = 370
REMARK                            x       y       z     vdW  Elec       q    Type
REMARK                         _______ _______ _______ _____ _____    ______ ____
ROOT
ATOM      3  C   LIG    1       25.148 156.223  30.211  0.00  0.00    +0.201 A 
ATOM      4  C   LIG    1       26.317 155.873  30.888  0.00  0.00    +0.163 A 
ATOM      5  C   LIG    1       26.292 155.685  32.270  0.00  0.00    +0.064 A 
ATOM      6  C   LIG    1       25.100 155.847  32.976  0.00  0.00    +0.066 A 
ATOM     11  C   LIG    1       23.932 156.197  32.299  0.00  0.00    +0.064 A 
ATOM     14  C   LIG    1       23.956 156.386  30.917  0.00  0.00    +0.163 A 
ENDROOT
BRANCH   3   1
ATOM      1  O   LIG    1       25.171 156.407  28.860  0.00  0.00    -0.501 OA
ATOM      2  H   LIG    1       25.016 155.548  28.431  0.00  0.00    +0.292 HD
ENDBRANCH   3   1
BRANCH   6   7
ATOM      7  C   LIG    1       25.074 155.650  34.416  0.00  0.00    +0.337 C 
ATOM      8  O   LIG    1       25.910 156.088  35.213  0.00  0.00    -0.245 OA
BRANCH   7   9
ATOM      9  O   LIG    1       24.006 154.910  34.821  0.00  0.00    -0.477 OA
ATOM     10  H   LIG    1       23.157 155.301  34.524  0.00  0.00    +0.295 HD
ENDBRANCH   7   9
ENDBRANCH   6   7
BRANCH   4  12
ATOM     12  O   LIG    1       27.487 155.709  30.210  0.00  0.00    -0.503 OA
ATOM     13  H   LIG    1       27.499 154.812  29.834  0.00  0.00    +0.292 HD
ENDBRANCH   4  12
BRANCH  14  15
ATOM     15  O   LIG    1       22.809 156.729  30.267  0.00  0.00    -0.503 OA
ATOM     16  H   LIG    1       22.454 155.944  29.814  0.00  0.00    +0.292 HD
ENDBRANCH  14  15
TORSDOF 5
ENDMDL
