MODEL 1
REMARK VINA RESULT:      -7.1      0.000      0.000
REMARK  Name = 439533
REMARK                            x       y       z     vdW  Elec       q    Type
REMARK                         _______ _______ _______ _____ _____    ______ ____
ROOT
ATOM      1  O   LIG    1       22.195 158.044  28.478  0.00  0.00    -0.480 OA
ATOM      2  C   LIG    1       21.777 158.460  27.243  0.00  0.00    +0.139 A 
ATOM      3  C   LIG    1       21.589 159.833  27.077  0.00  0.00    +0.092 A 
ATOM      4  C   LIG    1       21.159 160.336  25.848  0.00  0.00    +0.124 A 
ATOM      5  C   LIG    1       20.926 159.469  24.781  0.00  0.00    +0.091 A 
ATOM      6  C   LIG    1       21.130 158.099  24.934  0.00  0.00    +0.134 A 
ATOM     11  C   LIG    1       21.564 157.598  26.164  0.00  0.00    +0.103 A 
ATOM     12  C   LIG    1       21.832 156.156  26.332  0.00  0.00    +0.202 C 
ATOM     13  C   LIG    1       22.468 155.758  27.647  0.00  0.00    +0.230 C 
ATOM     16  O   LIG    1       21.577 155.356  25.440  0.00  0.00    -0.289 OA
ATOM     17  C   LIG    1       21.919 156.662  28.751  0.00  0.00    +0.240 C 
ENDROOT
BRANCH  17  18
ATOM     18  C   LIG    1       22.534 156.338  30.100  0.00  0.00    -0.001 A 
ATOM     19  C   LIG    1       23.843 156.727  30.379  0.00  0.00    +0.011 A 
ATOM     20  C   LIG    1       24.407 156.430  31.619  0.00  0.00    +0.049 A 
ATOM     21  C   LIG    1       23.661 155.745  32.578  0.00  0.00    +0.158 A 
ATOM     22  C   LIG    1       22.351 155.357  32.297  0.00  0.00    +0.159 A 
ATOM     27  C   LIG    1       21.787 155.654  31.056  0.00  0.00    +0.056 A 
BRANCH  22  23
ATOM     23  O   LIG    1       21.614 154.687  33.226  0.00  0.00    -0.503 OA
ATOM     24  H   LIG    1       20.689 154.667  32.925  0.00  0.00    +0.292 HD
ENDBRANCH  22  23
BRANCH  21  25
ATOM     25  O   LIG    1       24.224 155.460  33.785  0.00  0.00    -0.503 OA
ATOM     26  H   LIG    1       24.983 154.867  33.649  0.00  0.00    +0.292 HD
ENDBRANCH  21  25
ENDBRANCH  17  18
BRANCH   6   7
ATOM      7  O   LIG    1       20.906 157.301  23.853  0.00  0.00    -0.506 OA
ATOM      8  H   LIG    1       20.987 157.807  23.030  0.00  0.00    +0.292 HD
ENDBRANCH   6   7
BRANCH   4   9
ATOM      9  O   LIG    1       20.966 161.674  25.692  0.00  0.00    -0.507 OA
ATOM     10  H   LIG    1       21.831 162.121  25.692  0.00  0.00    +0.292 HD
ENDBRANCH   4   9
BRANCH  13  14
ATOM     14  O   LIG    1       22.132 154.407  27.908  0.00  0.00    -0.380 OA
ATOM     15  H   LIG    1       22.490 154.180  28.784  0.00  0.00    +0.211 HD
ENDBRANCH  13  14
TORSDOF 6
ENDMDL
MODEL 2
REMARK VINA RESULT:      -7.1     17.075     20.784
REMARK  Name = 439533
REMARK                            x       y       z     vdW  Elec       q    Type
REMARK                         _______ _______ _______ _____ _____    ______ ____
ROOT
ATOM      1  O   LIG    1       15.377 165.696  11.281  0.00  0.00    -0.480 OA
ATOM      2  C   LIG    1       15.743 166.144  10.040  0.00  0.00    +0.139 A 
ATOM      3  C   LIG    1       16.903 166.917   9.973  0.00  0.00    +0.092 A 
ATOM      4  C   LIG    1       17.341 167.415   8.745  0.00  0.00    +0.124 A 
ATOM      5  C   LIG    1       16.624 167.135   7.581  0.00  0.00    +0.091 A 
ATOM      6  C   LIG    1       15.475 166.348   7.638  0.00  0.00    +0.134 A 
ATOM     11  C   LIG    1       15.042 165.847   8.869  0.00  0.00    +0.103 A 
ATOM     12  C   LIG    1       13.854 164.972   8.944  0.00  0.00    +0.202 C 
ATOM     13  C   LIG    1       13.589 164.346  10.296  0.00  0.00    +0.230 C 
ATOM     16  O   LIG    1       13.163 164.757   7.956  0.00  0.00    -0.289 OA
ATOM     17  C   LIG    1       13.990 165.340  11.386  0.00  0.00    +0.240 C 
ENDROOT
BRANCH  17  18
ATOM     18  C   LIG    1       13.776 164.770  12.774  0.00  0.00    -0.001 A 
ATOM     19  C   LIG    1       14.732 163.925  13.334  0.00  0.00    +0.011 A 
ATOM     20  C   LIG    1       14.535 163.400  14.611  0.00  0.00    +0.049 A 
ATOM     21  C   LIG    1       13.382 163.723  15.327  0.00  0.00    +0.158 A 
ATOM     22  C   LIG    1       12.425 164.569  14.765  0.00  0.00    +0.159 A 
ATOM     27  C   LIG    1       12.623 165.093  13.487  0.00  0.00    +0.056 A 
BRANCH  22  23
ATOM     23  O   LIG    1       11.295 164.890  15.454  0.00  0.00    -0.503 OA
ATOM     24  H   LIG    1       10.891 165.667  15.032  0.00  0.00    +0.292 HD
ENDBRANCH  22  23
BRANCH  21  25
ATOM     25  O   LIG    1       13.200 163.204  16.573  0.00  0.00    -0.503 OA
ATOM     26  H   LIG    1       12.246 163.156  16.761  0.00  0.00    +0.292 HD
ENDBRANCH  21  25
ENDBRANCH  17  18
BRANCH   6   7
ATOM      7  O   LIG    1       14.826 166.090   6.469  0.00  0.00    -0.506 OA
ATOM      8  H   LIG    1       14.365 165.238   6.513  0.00  0.00    +0.292 HD
ENDBRANCH   6   7
BRANCH   4   9
ATOM      9  O   LIG    1       18.467 168.178   8.683  0.00  0.00    -0.507 OA
ATOM     10  H   LIG    1       18.865 168.226   9.569  0.00  0.00    +0.292 HD
ENDBRANCH   4   9
BRANCH  13  14
ATOM     14  O   LIG    1       12.204 164.057  10.383  0.00  0.00    -0.380 OA
ATOM     15  H   LIG    1       12.105 163.257  10.928  0.00  0.00    +0.211 HD
ENDBRANCH  13  14
TORSDOF 6
ENDMDL
MODEL 3
REMARK VINA RESULT:      -6.9     14.209     15.545
REMARK  Name = 439533
REMARK                            x       y       z     vdW  Elec       q    Type
REMARK                         _______ _______ _______ _____ _____    ______ ____
ROOT
ATOM      1  O   LIG    1       10.962 146.545  28.656  0.00  0.00    -0.480 OA
ATOM      2  C   LIG    1       10.195 147.590  29.097  0.00  0.00    +0.139 A 
ATOM      3  C   LIG    1        9.035 147.862  28.371  0.00  0.00    +0.092 A 
ATOM      4  C   LIG    1        8.201 148.914  28.754  0.00  0.00    +0.124 A 
ATOM      5  C   LIG    1        8.522 149.689  29.868  0.00  0.00    +0.091 A 
ATOM      6  C   LIG    1        9.669 149.412  30.609  0.00  0.00    +0.134 A 
ATOM     11  C   LIG    1       10.500 148.355  30.226  0.00  0.00    +0.103 A 
ATOM     12  C   LIG    1       11.693 148.014  31.025  0.00  0.00    +0.202 C 
ATOM     13  C   LIG    1       12.411 146.745  30.619  0.00  0.00    +0.230 C 
ATOM     16  O   LIG    1       12.043 148.711  31.970  0.00  0.00    -0.289 OA
ATOM     17  C   LIG    1       12.327 146.597  29.100  0.00  0.00    +0.240 C 
ENDROOT
BRANCH  17  18
ATOM     18  C   LIG    1       13.004 145.328  28.619  0.00  0.00    -0.001 A 
ATOM     19  C   LIG    1       12.468 144.085  28.951  0.00  0.00    +0.011 A 
ATOM     20  C   LIG    1       13.091 142.918  28.509  0.00  0.00    +0.049 A 
ATOM     21  C   LIG    1       14.249 142.997  27.735  0.00  0.00    +0.158 A 
ATOM     22  C   LIG    1       14.785 144.242  27.405  0.00  0.00    +0.159 A 
ATOM     27  C   LIG    1       14.161 145.409  27.847  0.00  0.00    +0.056 A 
BRANCH  22  23
ATOM     23  O   LIG    1       15.915 144.330  26.651  0.00  0.00    -0.503 OA
ATOM     24  H   LIG    1       15.662 144.283  25.713  0.00  0.00    +0.292 HD
ENDBRANCH  22  23
BRANCH  21  25
ATOM     25  O   LIG    1       14.850 141.851  27.310  0.00  0.00    -0.503 OA
ATOM     26  H   LIG    1       15.252 141.402  28.074  0.00  0.00    +0.292 HD
ENDBRANCH  21  25
ENDBRANCH  17  18
BRANCH   6   7
ATOM      7  O   LIG    1        9.923 150.189  31.699  0.00  0.00    -0.506 OA
ATOM      8  H   LIG    1       10.014 151.119  31.443  0.00  0.00    +0.292 HD
ENDBRANCH   6   7
BRANCH   4   9
ATOM      9  O   LIG    1        7.076 149.185  28.038  0.00  0.00    -0.507 OA
ATOM     10  H   LIG    1        6.456 148.441  28.131  0.00  0.00    +0.292 HD
ENDBRANCH   4   9
BRANCH  13  14
ATOM     14  O   LIG    1       13.764 146.854  31.025  0.00  0.00    -0.380 OA
ATOM     15  H   LIG    1       14.110 145.952  31.138  0.00  0.00    +0.211 HD
ENDBRANCH  13  14
TORSDOF 6
ENDMDL
MODEL 4
REMARK VINA RESULT:      -6.6     12.234     17.113
REMARK  Name = 439533
REMARK                            x       y       z     vdW  Elec       q    Type
REMARK                         _______ _______ _______ _____ _____    ______ ____
ROOT
ATOM      1  O   LIG    1       16.245 163.520  15.784  0.00  0.00    -0.480 OA
ATOM      2  C   LIG    1       16.774 163.569  17.046  0.00  0.00    +0.139 A 
ATOM      3  C   LIG    1       18.087 163.117  17.190  0.00  0.00    +0.092 A 
ATOM      4  C   LIG    1       18.696 163.131  18.445  0.00  0.00    +0.124 A 
ATOM      5  C   LIG    1       17.999 163.605  19.556  0.00  0.00    +0.091 A 
ATOM      6  C   LIG    1       16.694 164.076  19.416  0.00  0.00    +0.134 A 
ATOM     11  C   LIG    1       16.087 164.064  18.157  0.00  0.00    +0.103 A 
ATOM     12  C   LIG    1       14.724 164.603  17.979  0.00  0.00    +0.202 C 
ATOM     13  C   LIG    1       14.243 164.704  16.548  0.00  0.00    +0.230 C 
ATOM     16  O   LIG    1       14.056 164.966  18.940  0.00  0.00    -0.289 OA
ATOM     17  C   LIG    1       14.809 163.526  15.755  0.00  0.00    +0.240 C 
ENDROOT
BRANCH  17  18
ATOM     18  C   LIG    1       14.390 163.575  14.298  0.00  0.00    -0.001 A 
ATOM     19  C   LIG    1       14.766 164.656  13.502  0.00  0.00    +0.011 A 
ATOM     20  C   LIG    1       14.380 164.701  12.163  0.00  0.00    +0.049 A 
ATOM     21  C   LIG    1       13.620 163.664  11.621  0.00  0.00    +0.158 A 
ATOM     22  C   LIG    1       13.245 162.583  12.419  0.00  0.00    +0.159 A 
ATOM     27  C   LIG    1       13.631 162.539  13.759  0.00  0.00    +0.056 A 
BRANCH  22  23
ATOM     23  O   LIG    1       12.502 161.566  11.901  0.00  0.00    -0.503 OA
ATOM     24  H   LIG    1       12.798 160.733  12.307  0.00  0.00    +0.292 HD
ENDBRANCH  22  23
BRANCH  21  25
ATOM     25  O   LIG    1       13.249 163.719  10.312  0.00  0.00    -0.503 OA
ATOM     26  H   LIG    1       13.299 164.642  10.007  0.00  0.00    +0.292 HD
ENDBRANCH  21  25
ENDBRANCH  17  18
BRANCH   6   7
ATOM      7  O   LIG    1       16.067 164.545  20.531  0.00  0.00    -0.506 OA
ATOM      8  H   LIG    1       16.591 165.244  20.950  0.00  0.00    +0.292 HD
ENDBRANCH   6   7
BRANCH   4   9
ATOM      9  O   LIG    1       19.973 162.680  18.586  0.00  0.00    -0.507 OA
ATOM     10  H   LIG    1       20.547 163.157  17.962  0.00  0.00    +0.292 HD
ENDBRANCH   4   9
BRANCH  13  14
ATOM     14  O   LIG    1       12.827 164.655  16.553  0.00  0.00    -0.380 OA
ATOM     15  H   LIG    1       12.545 164.225  15.727  0.00  0.00    +0.211 HD
ENDBRANCH  13  14
TORSDOF 6
ENDMDL
MODEL 5
REMARK VINA RESULT:      -6.6     14.930     16.700
REMARK  Name = 439533
REMARK                            x       y       z     vdW  Elec       q    Type
REMARK                         _______ _______ _______ _____ _____    ______ ____
ROOT
ATOM      1  O   LIG    1       11.404 146.857  28.710  0.00  0.00    -0.480 OA
ATOM      2  C   LIG    1       12.411 145.950  28.518  0.00  0.00    +0.139 A 
ATOM      3  C   LIG    1       13.613 146.449  28.013  0.00  0.00    +0.092 A 
ATOM      4  C   LIG    1       14.686 145.588  27.785  0.00  0.00    +0.124 A 
ATOM      5  C   LIG    1       14.563 144.227  28.068  0.00  0.00    +0.091 A 
ATOM      6  C   LIG    1       13.372 143.725  28.589  0.00  0.00    +0.134 A 
ATOM     11  C   LIG    1       12.300 144.590  28.821  0.00  0.00    +0.103 A 
ATOM     12  C   LIG    1       11.047 144.087  29.417  0.00  0.00    +0.202 C 
ATOM     13  C   LIG    1       10.028 145.143  29.788  0.00  0.00    +0.230 C 
ATOM     16  O   LIG    1       10.878 142.889  29.618  0.00  0.00    -0.289 OA
ATOM     17  C   LIG    1       10.093 146.271  28.758  0.00  0.00    +0.240 C 
ENDROOT
BRANCH  17  18
ATOM     18  C   LIG    1        9.115 147.384  29.081  0.00  0.00    -0.001 A 
ATOM     19  C   LIG    1        9.189 148.042  30.307  0.00  0.00    +0.011 A 
ATOM     20  C   LIG    1        8.289 149.065  30.603  0.00  0.00    +0.049 A 
ATOM     21  C   LIG    1        7.317 149.430  29.671  0.00  0.00    +0.158 A 
ATOM     22  C   LIG    1        7.244 148.770  28.444  0.00  0.00    +0.159 A 
ATOM     27  C   LIG    1        8.145 147.746  28.149  0.00  0.00    +0.056 A 
BRANCH  22  23
ATOM     23  O   LIG    1        6.298 149.116  27.527  0.00  0.00    -0.503 OA
ATOM     24  H   LIG    1        5.896 149.957  27.806  0.00  0.00    +0.292 HD
ENDBRANCH  22  23
BRANCH  21  25
ATOM     25  O   LIG    1        6.443 150.430  29.972  0.00  0.00    -0.503 OA
ATOM     26  H   LIG    1        5.605 150.038  30.275  0.00  0.00    +0.292 HD
ENDBRANCH  21  25
ENDBRANCH  17  18
BRANCH   6   7
ATOM      7  O   LIG    1       13.314 142.392  28.865  0.00  0.00    -0.506 OA
ATOM      8  H   LIG    1       13.495 141.869  28.070  0.00  0.00    +0.292 HD
ENDBRANCH   6   7
BRANCH   4   9
ATOM      9  O   LIG    1       15.854 146.075  27.284  0.00  0.00    -0.507 OA
ATOM     10  H   LIG    1       15.804 146.078  26.312  0.00  0.00    +0.292 HD
ENDBRANCH   4   9
BRANCH  13  14
ATOM     14  O   LIG    1        8.745 144.542  29.774  0.00  0.00    -0.380 OA
ATOM     15  H   LIG    1        8.346 144.682  30.650  0.00  0.00    +0.211 HD
ENDBRANCH  13  14
TORSDOF 6
ENDMDL
MODEL 6
REMARK VINA RESULT:      -6.5     23.680     26.505
REMARK  Name = 439533
REMARK                            x       y       z     vdW  Elec       q    Type
REMARK                         _______ _______ _______ _____ _____    ______ ____
ROOT
ATOM      1  O   LIG    1       21.336 140.635   8.956  0.00  0.00    -0.480 OA
ATOM      2  C   LIG    1       20.500 139.561   8.809  0.00  0.00    +0.139 A 
ATOM      3  C   LIG    1       20.100 138.916   9.981  0.00  0.00    +0.092 A 
ATOM      4  C   LIG    1       19.251 137.810   9.914  0.00  0.00    +0.124 A 
ATOM      5  C   LIG    1       18.794 137.353   8.678  0.00  0.00    +0.091 A 
ATOM      6  C   LIG    1       19.174 138.003   7.506  0.00  0.00    +0.134 A 
ATOM     11  C   LIG    1       20.021 139.113   7.575  0.00  0.00    +0.103 A 
ATOM     12  C   LIG    1       20.397 139.845   6.349  0.00  0.00    +0.202 C 
ATOM     13  C   LIG    1       21.165 141.131   6.565  0.00  0.00    +0.230 C 
ATOM     16  O   LIG    1       20.069 139.435   5.242  0.00  0.00    -0.289 OA
ATOM     17  C   LIG    1       22.085 140.956   7.774  0.00  0.00    +0.240 C 
ENDROOT
BRANCH  17  18
ATOM     18  C   LIG    1       22.872 142.218   8.069  0.00  0.00    -0.001 A 
ATOM     19  C   LIG    1       22.612 143.384   7.351  0.00  0.00    +0.011 A 
ATOM     20  C   LIG    1       23.336 144.544   7.623  0.00  0.00    +0.049 A 
ATOM     21  C   LIG    1       24.317 144.538   8.614  0.00  0.00    +0.158 A 
ATOM     22  C   LIG    1       24.576 143.371   9.332  0.00  0.00    +0.159 A 
ATOM     27  C   LIG    1       23.852 142.209   9.060  0.00  0.00    +0.056 A 
BRANCH  22  23
ATOM     23  O   LIG    1       25.532 143.352  10.302  0.00  0.00    -0.503 OA
ATOM     24  H   LIG    1       25.594 144.243  10.688  0.00  0.00    +0.292 HD
ENDBRANCH  22  23
BRANCH  21  25
ATOM     25  O   LIG    1       25.018 145.677   8.870  0.00  0.00    -0.503 OA
ATOM     26  H   LIG    1       25.932 145.565   8.554  0.00  0.00    +0.292 HD
ENDBRANCH  21  25
ENDBRANCH  17  18
BRANCH   6   7
ATOM      7  O   LIG    1       18.683 137.525   6.329  0.00  0.00    -0.506 OA
ATOM      8  H   LIG    1       19.253 136.825   5.978  0.00  0.00    +0.292 HD
ENDBRANCH   6   7
BRANCH   4   9
ATOM      9  O   LIG    1       18.871 137.176  11.057  0.00  0.00    -0.507 OA
ATOM     10  H   LIG    1       19.555 137.310  11.736  0.00  0.00    +0.292 HD
ENDBRANCH   4   9
BRANCH  13  14
ATOM     14  O   LIG    1       21.932 141.387   5.401  0.00  0.00    -0.380 OA
ATOM     15  H   LIG    1       22.865 141.441   5.670  0.00  0.00    +0.211 HD
ENDBRANCH  13  14
TORSDOF 6
ENDMDL
MODEL 7
REMARK VINA RESULT:      -6.5      7.845     11.196
REMARK  Name = 439533
REMARK                            x       y       z     vdW  Elec       q    Type
REMARK                         _______ _______ _______ _____ _____    ______ ____
ROOT
ATOM      1  O   LIG    1       21.419 164.720  21.924  0.00  0.00    -0.480 OA
ATOM      2  C   LIG    1       22.549 164.853  22.684  0.00  0.00    +0.139 A 
ATOM      3  C   LIG    1       23.193 166.091  22.633  0.00  0.00    +0.092 A 
ATOM      4  C   LIG    1       24.354 166.306  23.377  0.00  0.00    +0.124 A 
ATOM      5  C   LIG    1       24.869 165.287  24.179  0.00  0.00    +0.091 A 
ATOM      6  C   LIG    1       24.221 164.055  24.249  0.00  0.00    +0.134 A 
ATOM     11  C   LIG    1       23.056 163.844  23.506  0.00  0.00    +0.103 A 
ATOM     12  C   LIG    1       22.329 162.563  23.604  0.00  0.00    +0.202 C 
ATOM     13  C   LIG    1       20.990 162.516  22.900  0.00  0.00    +0.230 C 
ATOM     16  O   LIG    1       22.785 161.623  24.245  0.00  0.00    -0.289 OA
ATOM     17  C   LIG    1       21.075 163.357  21.626  0.00  0.00    +0.240 C 
ENDROOT
BRANCH  17  18
ATOM     18  C   LIG    1       19.757 163.379  20.877  0.00  0.00    -0.001 A 
ATOM     19  C   LIG    1       18.576 163.674  21.556  0.00  0.00    +0.011 A 
ATOM     20  C   LIG    1       17.364 163.694  20.867  0.00  0.00    +0.049 A 
ATOM     21  C   LIG    1       17.335 163.421  19.499  0.00  0.00    +0.158 A 
ATOM     22  C   LIG    1       18.518 163.126  18.820  0.00  0.00    +0.159 A 
ATOM     27  C   LIG    1       19.730 163.106  19.511  0.00  0.00    +0.056 A 
BRANCH  22  23
ATOM     23  O   LIG    1       18.501 162.857  17.486  0.00  0.00    -0.503 OA
ATOM     24  H   LIG    1       17.871 162.133  17.327  0.00  0.00    +0.292 HD
ENDBRANCH  22  23
BRANCH  21  25
ATOM     25  O   LIG    1       16.145 163.443  18.837  0.00  0.00    -0.503 OA
ATOM     26  H   LIG    1       15.560 162.763  19.214  0.00  0.00    +0.292 HD
ENDBRANCH  21  25
ENDBRANCH  17  18
BRANCH   6   7
ATOM      7  O   LIG    1       24.757 163.103  25.063  0.00  0.00    -0.506 OA
ATOM      8  H   LIG    1       24.861 163.442  25.965  0.00  0.00    +0.292 HD
ENDBRANCH   6   7
BRANCH   4   9
ATOM      9  O   LIG    1       24.985 167.510  23.317  0.00  0.00    -0.507 OA
ATOM     10  H   LIG    1       24.416 168.186  23.725  0.00  0.00    +0.292 HD
ENDBRANCH   4   9
BRANCH  13  14
ATOM     14  O   LIG    1       20.709 161.165  22.575  0.00  0.00    -0.380 OA
ATOM     15  H   LIG    1       20.564 161.118  21.614  0.00  0.00    +0.211 HD
ENDBRANCH  13  14
TORSDOF 6
ENDMDL
MODEL 8
REMARK VINA RESULT:      -6.4     15.173     17.389
REMARK  Name = 439533
REMARK                            x       y       z     vdW  Elec       q    Type
REMARK                         _______ _______ _______ _____ _____    ______ ____
ROOT
ATOM      1  O   LIG    1       10.791 144.536  29.606  0.00  0.00    -0.480 OA
ATOM      2  C   LIG    1        9.710 144.545  30.446  0.00  0.00    +0.139 A 
ATOM      3  C   LIG    1        8.451 144.525  29.843  0.00  0.00    +0.092 A 
ATOM      4  C   LIG    1        7.299 144.537  30.631  0.00  0.00    +0.124 A 
ATOM      5  C   LIG    1        7.404 144.558  32.022  0.00  0.00    +0.091 A 
ATOM      6  C   LIG    1        8.657 144.559  32.631  0.00  0.00    +0.134 A 
ATOM     11  C   LIG    1        9.809 144.544  31.840  0.00  0.00    +0.103 A 
ATOM     12  C   LIG    1       11.146 144.496  32.465  0.00  0.00    +0.202 C 
ATOM     13  C   LIG    1       12.306 144.299  31.514  0.00  0.00    +0.230 C 
ATOM     16  O   LIG    1       11.280 144.580  33.680  0.00  0.00    -0.289 OA
ATOM     17  C   LIG    1       11.999 145.030  30.206  0.00  0.00    +0.240 C 
ENDROOT
BRANCH  17  18
ATOM     18  C   LIG    1       13.110 144.855  29.189  0.00  0.00    -0.001 A 
ATOM     19  C   LIG    1       13.344 143.604  28.622  0.00  0.00    +0.011 A 
ATOM     20  C   LIG    1       14.366 143.444  27.687  0.00  0.00    +0.049 A 
ATOM     21  C   LIG    1       15.152 144.536  27.320  0.00  0.00    +0.158 A 
ATOM     22  C   LIG    1       14.917 145.788  27.888  0.00  0.00    +0.159 A 
ATOM     27  C   LIG    1       13.894 145.947  28.824  0.00  0.00    +0.056 A 
BRANCH  22  23
ATOM     23  O   LIG    1       15.679 146.861  27.538  0.00  0.00    -0.503 OA
ATOM     24  H   LIG    1       16.574 146.731  27.897  0.00  0.00    +0.292 HD
ENDBRANCH  22  23
BRANCH  21  25
ATOM     25  O   LIG    1       16.148 144.367  26.406  0.00  0.00    -0.503 OA
ATOM     26  H   LIG    1       15.872 144.759  25.559  0.00  0.00    +0.292 HD
ENDBRANCH  21  25
ENDBRANCH  17  18
BRANCH   6   7
ATOM      7  O   LIG    1        8.700 144.561  33.992  0.00  0.00    -0.506 OA
ATOM      8  H   LIG    1        9.477 144.078  34.312  0.00  0.00    +0.292 HD
ENDBRANCH   6   7
BRANCH   4   9
ATOM      9  O   LIG    1        6.073 144.528  30.041  0.00  0.00    -0.507 OA
ATOM     10  H   LIG    1        5.790 145.446  29.886  0.00  0.00    +0.292 HD
ENDBRANCH   4   9
BRANCH  13  14
ATOM     14  O   LIG    1       13.467 144.844  32.116  0.00  0.00    -0.380 OA
ATOM     15  H   LIG    1       13.627 144.355  32.942  0.00  0.00    +0.211 HD
ENDBRANCH  13  14
TORSDOF 6
ENDMDL
MODEL 9
REMARK VINA RESULT:      -6.4     24.747     27.115
REMARK  Name = 439533
REMARK                            x       y       z     vdW  Elec       q    Type
REMARK                         _______ _______ _______ _____ _____    ______ ____
ROOT
ATOM      1  O   LIG    1       21.330 141.711   6.699  0.00  0.00    -0.480 OA
ATOM      2  C   LIG    1       21.280 140.964   7.846  0.00  0.00    +0.139 A 
ATOM      3  C   LIG    1       20.255 140.020   7.931  0.00  0.00    +0.092 A 
ATOM      4  C   LIG    1       20.133 139.222   9.070  0.00  0.00    +0.124 A 
ATOM      5  C   LIG    1       21.040 139.361  10.121  0.00  0.00    +0.091 A 
ATOM      6  C   LIG    1       22.076 140.289  10.035  0.00  0.00    +0.134 A 
ATOM     11  C   LIG    1       22.199 141.083   8.892  0.00  0.00    +0.103 A 
ATOM     12  C   LIG    1       23.318 142.038   8.760  0.00  0.00    +0.202 C 
ATOM     13  C   LIG    1       23.450 142.708   7.410  0.00  0.00    +0.230 C 
ATOM     16  O   LIG    1       24.094 142.235   9.688  0.00  0.00    -0.289 OA
ATOM     17  C   LIG    1       22.051 142.945   6.840  0.00  0.00    +0.240 C 
ENDROOT
BRANCH  17  18
ATOM     18  C   LIG    1       22.104 143.593   5.469  0.00  0.00    -0.001 A 
ATOM     19  C   LIG    1       21.512 144.837   5.265  0.00  0.00    +0.011 A 
ATOM     20  C   LIG    1       21.561 145.433   4.005  0.00  0.00    +0.049 A 
ATOM     21  C   LIG    1       22.204 144.782   2.951  0.00  0.00    +0.158 A 
ATOM     22  C   LIG    1       22.796 143.536   3.157  0.00  0.00    +0.159 A 
ATOM     27  C   LIG    1       22.746 142.941   4.419  0.00  0.00    +0.056 A 
BRANCH  22  23
ATOM     23  O   LIG    1       23.425 142.892   2.136  0.00  0.00    -0.503 OA
ATOM     24  H   LIG    1       24.049 142.250   2.518  0.00  0.00    +0.292 HD
ENDBRANCH  22  23
BRANCH  21  25
ATOM     25  O   LIG    1       22.244 145.373   1.725  0.00  0.00    -0.503 OA
ATOM     26  H   LIG    1       21.441 145.909   1.604  0.00  0.00    +0.292 HD
ENDBRANCH  21  25
ENDBRANCH  17  18
BRANCH   6   7
ATOM      7  O   LIG    1       22.943 140.368  11.082  0.00  0.00    -0.506 OA
ATOM      8  H   LIG    1       22.472 140.285  11.925  0.00  0.00    +0.292 HD
ENDBRANCH   6   7
BRANCH   4   9
ATOM      9  O   LIG    1       19.127 138.309   9.155  0.00  0.00    -0.507 OA
ATOM     10  H   LIG    1       19.445 137.534   9.649  0.00  0.00    +0.292 HD
ENDBRANCH   4   9
BRANCH  13  14
ATOM     14  O   LIG    1       24.118 143.944   7.595  0.00  0.00    -0.380 OA
ATOM     15  H   LIG    1       24.085 144.425   6.750  0.00  0.00    +0.211 HD
ENDBRANCH  13  14
TORSDOF 6
ENDMDL
