MODEL 1
REMARK VINA RESULT:      -7.6      0.000      0.000
REMARK  Name = 5280343
REMARK                            x       y       z     vdW  Elec       q    Type
REMARK                         _______ _______ _______ _____ _____    ______ ____
ROOT
ATOM      1  O   LIG    1       24.028 156.547  30.366  0.00  0.00    -0.451 OA
ATOM      2  C   LIG    1       22.671 156.364  30.150  0.00  0.00    +0.181 A 
ATOM      3  C   LIG    1       21.816 155.854  31.055  0.00  0.00    +0.208 A 
ATOM      4  C   LIG    1       22.333 155.470  32.391  0.00  0.00    +0.238 A 
ATOM      5  C   LIG    1       23.771 155.680  32.619  0.00  0.00    +0.109 A 
ATOM      6  C   LIG    1       24.356 155.353  33.845  0.00  0.00    +0.135 A 
ATOM      7  C   LIG    1       25.722 155.561  34.034  0.00  0.00    +0.091 A 
ATOM      8  C   LIG    1       26.501 156.091  33.004  0.00  0.00    +0.124 A 
ATOM      9  C   LIG    1       25.914 156.415  31.780  0.00  0.00    +0.092 A 
ATOM     14  O   LIG    1       21.604 155.003  33.256  0.00  0.00    -0.283 OA
ATOM     27  C   LIG    1       24.547 156.210  31.589  0.00  0.00    +0.147 A 
ENDROOT
BRANCH   2  17
ATOM     17  C   LIG    1       22.245 156.765  28.798  0.00  0.00    +0.025 A 
ATOM     18  C   LIG    1       21.831 158.076  28.558  0.00  0.00    +0.015 A 
ATOM     19  C   LIG    1       21.427 158.456  27.278  0.00  0.00    +0.050 A 
ATOM     20  C   LIG    1       21.438 157.527  26.238  0.00  0.00    +0.158 A 
ATOM     21  C   LIG    1       21.851 156.216  26.478  0.00  0.00    +0.159 A 
ATOM     26  C   LIG    1       22.256 155.836  27.758  0.00  0.00    +0.060 A 
BRANCH  21  22
ATOM     22  O   LIG    1       21.867 155.301  25.469  0.00  0.00    -0.503 OA
ATOM     23  H   LIG    1       22.149 155.727  24.644  0.00  0.00    +0.292 HD
ENDBRANCH  21  22
BRANCH  20  24
ATOM     24  O   LIG    1       21.039 157.910  24.993  0.00  0.00    -0.503 OA
ATOM     25  H   LIG    1       21.760 157.766  24.359  0.00  0.00    +0.292 HD
ENDBRANCH  20  24
ENDBRANCH   2  17
BRANCH   8  10
ATOM     10  O   LIG    1       27.834 156.291  33.192  0.00  0.00    -0.507 OA
ATOM     11  H   LIG    1       28.117 155.801  33.983  0.00  0.00    +0.292 HD
ENDBRANCH   8  10
BRANCH   6  12
ATOM     12  O   LIG    1       23.643 154.833  34.883  0.00  0.00    -0.506 OA
ATOM     13  H   LIG    1       23.092 154.094  34.581  0.00  0.00    +0.292 HD
ENDBRANCH   6  12
BRANCH   3  15
ATOM     15  O   LIG    1       20.477 155.654  30.797  0.00  0.00    -0.501 OA
ATOM     16  H   LIG    1       20.336 154.753  30.464  0.00  0.00    +0.292 HD
ENDBRANCH   3  15
TORSDOF 6
ENDMDL
MODEL 2
REMARK VINA RESULT:      -7.0      1.555      7.202
REMARK  Name = 5280343
REMARK                            x       y       z     vdW  Elec       q    Type
REMARK                         _______ _______ _______ _____ _____    ______ ____
ROOT
ATOM      1  O   LIG    1       22.177 158.012  28.532  0.00  0.00    -0.451 OA
ATOM      2  C   LIG    1       22.375 156.652  28.717  0.00  0.00    +0.181 A 
ATOM      3  C   LIG    1       22.189 155.718  27.767  0.00  0.00    +0.208 A 
ATOM      4  C   LIG    1       21.760 156.148  26.414  0.00  0.00    +0.238 A 
ATOM      5  C   LIG    1       21.564 157.593  26.221  0.00  0.00    +0.109 A 
ATOM      6  C   LIG    1       21.164 158.101  24.982  0.00  0.00    +0.135 A 
ATOM      7  C   LIG    1       20.985 159.475  24.827  0.00  0.00    +0.091 A 
ATOM      8  C   LIG    1       21.205 160.338  25.901  0.00  0.00    +0.124 A 
ATOM      9  C   LIG    1       21.604 159.828  27.137  0.00  0.00    +0.092 A 
ATOM     14  O   LIG    1       21.576 155.345  25.509  0.00  0.00    -0.283 OA
ATOM     27  C   LIG    1       21.785 158.453  27.295  0.00  0.00    +0.147 A 
ENDROOT
BRANCH   2  17
ATOM     17  C   LIG    1       22.795 156.314  30.088  0.00  0.00    +0.025 A 
ATOM     18  C   LIG    1       24.094 156.599  30.510  0.00  0.00    +0.015 A 
ATOM     19  C   LIG    1       24.491 156.278  31.809  0.00  0.00    +0.050 A 
ATOM     20  C   LIG    1       23.591 155.673  32.685  0.00  0.00    +0.158 A 
ATOM     21  C   LIG    1       22.292 155.387  32.262  0.00  0.00    +0.159 A 
ATOM     26  C   LIG    1       21.894 155.709  30.964  0.00  0.00    +0.060 A 
BRANCH  21  22
ATOM     22  O   LIG    1       21.404 154.798  33.110  0.00  0.00    -0.503 OA
ATOM     23  H   LIG    1       20.674 155.410  33.298  0.00  0.00    +0.292 HD
ENDBRANCH  21  22
BRANCH  20  24
ATOM     24  O   LIG    1       23.991 155.363  33.949  0.00  0.00    -0.503 OA
ATOM     25  H   LIG    1       24.960 155.348  33.991  0.00  0.00    +0.292 HD
ENDBRANCH  20  24
ENDBRANCH   2  17
BRANCH   8  10
ATOM     10  O   LIG    1       21.028 161.679  25.745  0.00  0.00    -0.507 OA
ATOM     11  H   LIG    1       20.363 161.986  26.386  0.00  0.00    +0.292 HD
ENDBRANCH   8  10
BRANCH   6  12
ATOM     12  O   LIG    1       20.935 157.304  23.901  0.00  0.00    -0.506 OA
ATOM     13  H   LIG    1       20.524 157.811  23.185  0.00  0.00    +0.292 HD
ENDBRANCH   6  12
BRANCH   3  15
ATOM     15  O   LIG    1       22.363 154.370  27.993  0.00  0.00    -0.501 OA
ATOM     16  H   LIG    1       22.301 153.884  27.154  0.00  0.00    +0.292 HD
ENDBRANCH   3  15
TORSDOF 6
ENDMDL
MODEL 3
REMARK VINA RESULT:      -6.9     16.627     18.169
REMARK  Name = 5280343
REMARK                            x       y       z     vdW  Elec       q    Type
REMARK                         _______ _______ _______ _____ _____    ______ ____
ROOT
ATOM      1  O   LIG    1       14.440 142.143  27.117  0.00  0.00    -0.451 OA
ATOM      2  C   LIG    1       13.651 141.106  27.591  0.00  0.00    +0.181 A 
ATOM      3  C   LIG    1       12.723 141.235  28.557  0.00  0.00    +0.208 A 
ATOM      4  C   LIG    1       12.498 142.571  29.160  0.00  0.00    +0.238 A 
ATOM      5  C   LIG    1       13.329 143.668  28.643  0.00  0.00    +0.109 A 
ATOM      6  C   LIG    1       13.191 144.966  29.143  0.00  0.00    +0.135 A 
ATOM      7  C   LIG    1       13.993 145.988  28.635  0.00  0.00    +0.091 A 
ATOM      8  C   LIG    1       14.928 145.716  27.634  0.00  0.00    +0.124 A 
ATOM      9  C   LIG    1       15.063 144.420  27.138  0.00  0.00    +0.092 A 
ATOM     14  O   LIG    1       11.667 142.750  30.041  0.00  0.00    -0.283 OA
ATOM     27  C   LIG    1       14.260 143.395  27.643  0.00  0.00    +0.147 A 
ENDROOT
BRANCH   2  17
ATOM     17  C   LIG    1       13.944 139.817  26.942  0.00  0.00    +0.025 A 
ATOM     18  C   LIG    1       14.904 138.964  27.488  0.00  0.00    +0.015 A 
ATOM     19  C   LIG    1       15.183 137.743  26.873  0.00  0.00    +0.050 A 
ATOM     20  C   LIG    1       14.502 137.374  25.713  0.00  0.00    +0.158 A 
ATOM     21  C   LIG    1       13.542 138.227  25.167  0.00  0.00    +0.159 A 
ATOM     26  C   LIG    1       13.263 139.448  25.782  0.00  0.00    +0.060 A 
BRANCH  21  22
ATOM     22  O   LIG    1       12.870 137.877  24.036  0.00  0.00    -0.503 OA
ATOM     23  H   LIG    1       11.914 137.878  24.208  0.00  0.00    +0.292 HD
ENDBRANCH  21  22
BRANCH  20  24
ATOM     24  O   LIG    1       14.784 136.180  25.121  0.00  0.00    -0.503 OA
ATOM     25  H   LIG    1       15.694 135.917  25.331  0.00  0.00    +0.292 HD
ENDBRANCH  20  24
ENDBRANCH   2  17
BRANCH   8  10
ATOM     10  O   LIG    1       15.709 146.717  27.143  0.00  0.00    -0.507 OA
ATOM     11  H   LIG    1       15.776 147.421  27.810  0.00  0.00    +0.292 HD
ENDBRANCH   8  10
BRANCH   6  12
ATOM     12  O   LIG    1       12.296 145.286  30.119  0.00  0.00    -0.506 OA
ATOM     13  H   LIG    1       12.620 144.996  30.986  0.00  0.00    +0.292 HD
ENDBRANCH   6  12
BRANCH   3  15
ATOM     15  O   LIG    1       11.977 140.177  29.030  0.00  0.00    -0.501 OA
ATOM     16  H   LIG    1       12.017 140.152  29.999  0.00  0.00    +0.292 HD
ENDBRANCH   3  15
TORSDOF 6
ENDMDL
MODEL 4
REMARK VINA RESULT:      -6.8     14.280     16.371
REMARK  Name = 5280343
REMARK                            x       y       z     vdW  Elec       q    Type
REMARK                         _______ _______ _______ _____ _____    ______ ____
ROOT
ATOM      1  O   LIG    1       10.675 146.755  28.476  0.00  0.00    -0.451 OA
ATOM      2  C   LIG    1       11.611 146.270  29.377  0.00  0.00    +0.181 A 
ATOM      3  C   LIG    1       11.489 146.341  30.715  0.00  0.00    +0.208 A 
ATOM      4  C   LIG    1       10.272 146.960  31.291  0.00  0.00    +0.238 A 
ATOM      5  C   LIG    1        9.277 147.461  30.330  0.00  0.00    +0.109 A 
ATOM      6  C   LIG    1        8.094 148.058  30.772  0.00  0.00    +0.135 A 
ATOM      7  C   LIG    1        7.168 148.525  29.838  0.00  0.00    +0.091 A 
ATOM      8  C   LIG    1        7.423 148.396  28.472  0.00  0.00    +0.124 A 
ATOM      9  C   LIG    1        8.605 147.799  28.035  0.00  0.00    +0.092 A 
ATOM     14  O   LIG    1       10.104 147.052  32.500  0.00  0.00    -0.283 OA
ATOM     27  C   LIG    1        9.533 147.330  28.966  0.00  0.00    +0.147 A 
ENDROOT
BRANCH   2  17
ATOM     17  C   LIG    1       12.789 145.677  28.720  0.00  0.00    +0.025 A 
ATOM     18  C   LIG    1       12.903 144.291  28.612  0.00  0.00    +0.015 A 
ATOM     19  C   LIG    1       14.019 143.729  27.990  0.00  0.00    +0.050 A 
ATOM     20  C   LIG    1       15.020 144.553  27.476  0.00  0.00    +0.158 A 
ATOM     21  C   LIG    1       14.906 145.940  27.585  0.00  0.00    +0.159 A 
ATOM     26  C   LIG    1       13.790 146.501  28.206  0.00  0.00    +0.060 A 
BRANCH  21  22
ATOM     22  O   LIG    1       15.877 146.754  27.085  0.00  0.00    -0.503 OA
ATOM     23  H   LIG    1       15.539 147.662  27.013  0.00  0.00    +0.292 HD
ENDBRANCH  21  22
BRANCH  20  24
ATOM     24  O   LIG    1       16.105 143.993  26.873  0.00  0.00    -0.503 OA
ATOM     25  H   LIG    1       16.568 143.417  27.502  0.00  0.00    +0.292 HD
ENDBRANCH  20  24
ENDBRANCH   2  17
BRANCH   8  10
ATOM     10  O   LIG    1        6.517 148.854  27.565  0.00  0.00    -0.507 OA
ATOM     11  H   LIG    1        6.075 149.640  27.930  0.00  0.00    +0.292 HD
ENDBRANCH   8  10
BRANCH   6  12
ATOM     12  O   LIG    1        7.796 148.210  32.093  0.00  0.00    -0.506 OA
ATOM     13  H   LIG    1        8.129 149.058  32.421  0.00  0.00    +0.292 HD
ENDBRANCH   6  12
BRANCH   3  15
ATOM     15  O   LIG    1       12.454 145.878  31.584  0.00  0.00    -0.501 OA
ATOM     16  H   LIG    1       12.756 146.602  32.158  0.00  0.00    +0.292 HD
ENDBRANCH   3  15
TORSDOF 6
ENDMDL
MODEL 5
REMARK VINA RESULT:      -6.7     14.151     16.064
REMARK  Name = 5280343
REMARK                            x       y       z     vdW  Elec       q    Type
REMARK                         _______ _______ _______ _____ _____    ______ ____
ROOT
ATOM      1  O   LIG    1       10.930 146.483  28.591  0.00  0.00    -0.451 OA
ATOM      2  C   LIG    1       12.119 146.230  29.257  0.00  0.00    +0.181 A 
ATOM      3  C   LIG    1       12.606 146.983  30.260  0.00  0.00    +0.208 A 
ATOM      4  C   LIG    1       11.827 148.160  30.715  0.00  0.00    +0.238 A 
ATOM      5  C   LIG    1       10.560 148.415  30.012  0.00  0.00    +0.109 A 
ATOM      6  C   LIG    1        9.751 149.497  30.368  0.00  0.00    +0.135 A 
ATOM      7  C   LIG    1        8.555 149.716  29.685  0.00  0.00    +0.091 A 
ATOM      8  C   LIG    1        8.169 148.859  28.652  0.00  0.00    +0.124 A 
ATOM      9  C   LIG    1        8.979 147.780  28.300  0.00  0.00    +0.092 A 
ATOM     14  O   LIG    1       12.218 148.882  31.623  0.00  0.00    -0.283 OA
ATOM     27  C   LIG    1       10.176 147.558  28.983  0.00  0.00    +0.147 A 
ENDROOT
BRANCH   2  17
ATOM     17  C   LIG    1       12.829 145.048  28.738  0.00  0.00    +0.025 A 
ATOM     18  C   LIG    1       12.345 143.768  29.013  0.00  0.00    +0.015 A 
ATOM     19  C   LIG    1       13.018 142.649  28.522  0.00  0.00    +0.050 A 
ATOM     20  C   LIG    1       14.173 142.808  27.757  0.00  0.00    +0.158 A 
ATOM     21  C   LIG    1       14.657 144.088  27.483  0.00  0.00    +0.159 A 
ATOM     26  C   LIG    1       13.984 145.208  27.973  0.00  0.00    +0.060 A 
BRANCH  21  22
ATOM     22  O   LIG    1       15.783 144.255  26.736  0.00  0.00    -0.503 OA
ATOM     23  H   LIG    1       15.850 145.179  26.445  0.00  0.00    +0.292 HD
ENDBRANCH  21  22
BRANCH  20  24
ATOM     24  O   LIG    1       14.822 141.707  27.286  0.00  0.00    -0.503 OA
ATOM     25  H   LIG    1       14.394 141.399  26.471  0.00  0.00    +0.292 HD
ENDBRANCH  20  24
ENDBRANCH   2  17
BRANCH   8  10
ATOM     10  O   LIG    1        7.001 149.077  27.988  0.00  0.00    -0.507 OA
ATOM     11  H   LIG    1        6.877 148.371  27.330  0.00  0.00    +0.292 HD
ENDBRANCH   8  10
BRANCH   6  12
ATOM     12  O   LIG    1       10.080 150.364  31.367  0.00  0.00    -0.506 OA
ATOM     13  H   LIG    1       10.652 149.930  32.018  0.00  0.00    +0.292 HD
ENDBRANCH   6  12
BRANCH   3  15
ATOM     15  O   LIG    1       13.809 146.724  30.880  0.00  0.00    -0.501 OA
ATOM     16  H   LIG    1       14.502 146.587  30.213  0.00  0.00    +0.292 HD
ENDBRANCH   3  15
TORSDOF 6
ENDMDL
MODEL 6
REMARK VINA RESULT:      -6.7     14.441     18.228
REMARK  Name = 5280343
REMARK                            x       y       z     vdW  Elec       q    Type
REMARK                         _______ _______ _______ _____ _____    ______ ____
ROOT
ATOM      1  O   LIG    1       15.920 163.473  15.844  0.00  0.00    -0.451 OA
ATOM      2  C   LIG    1       14.613 163.873  15.610  0.00  0.00    +0.181 A 
ATOM      3  C   LIG    1       13.749 164.254  16.568  0.00  0.00    +0.208 A 
ATOM      4  C   LIG    1       14.207 164.274  17.978  0.00  0.00    +0.238 A 
ATOM      5  C   LIG    1       15.598 163.862  18.218  0.00  0.00    +0.109 A 
ATOM      6  C   LIG    1       16.127 163.849  19.511  0.00  0.00    +0.135 A 
ATOM      7  C   LIG    1       17.449 163.453  19.711  0.00  0.00    +0.091 A 
ATOM      8  C   LIG    1       18.239 163.071  18.625  0.00  0.00    +0.124 A 
ATOM      9  C   LIG    1       17.708 163.085  17.335  0.00  0.00    +0.092 A 
ATOM     14  O   LIG    1       13.467 164.613  18.893  0.00  0.00    -0.283 OA
ATOM     27  C   LIG    1       16.385 163.482  17.133  0.00  0.00    +0.147 A 
ENDROOT
BRANCH   2  17
ATOM     17  C   LIG    1       14.241 163.817  14.185  0.00  0.00    +0.025 A 
ATOM     18  C   LIG    1       14.565 164.878  13.339  0.00  0.00    +0.015 A 
ATOM     19  C   LIG    1       14.213 164.826  11.990  0.00  0.00    +0.050 A 
ATOM     20  C   LIG    1       13.537 163.714  11.488  0.00  0.00    +0.158 A 
ATOM     21  C   LIG    1       13.212 162.654  12.335  0.00  0.00    +0.159 A 
ATOM     26  C   LIG    1       13.565 162.705  13.683  0.00  0.00    +0.060 A 
BRANCH  21  22
ATOM     22  O   LIG    1       12.553 161.563  11.855  0.00  0.00    -0.503 OA
ATOM     23  H   LIG    1       12.639 161.526  10.888  0.00  0.00    +0.292 HD
ENDBRANCH  21  22
BRANCH  20  24
ATOM     24  O   LIG    1       13.196 163.676  10.169  0.00  0.00    -0.503 OA
ATOM     25  H   LIG    1       13.911 164.056   9.635  0.00  0.00    +0.292 HD
ENDBRANCH  20  24
ENDBRANCH   2  17
BRANCH   8  10
ATOM     10  O   LIG    1       19.529 162.685  18.824  0.00  0.00    -0.507 OA
ATOM     11  H   LIG    1       19.547 161.983  19.498  0.00  0.00    +0.292 HD
ENDBRANCH   8  10
BRANCH   6  12
ATOM     12  O   LIG    1       15.400 164.211  20.606  0.00  0.00    -0.506 OA
ATOM     13  H   LIG    1       15.532 165.150  20.806  0.00  0.00    +0.292 HD
ENDBRANCH   6  12
BRANCH   3  15
ATOM     15  O   LIG    1       12.445 164.614  16.306  0.00  0.00    -0.501 OA
ATOM     16  H   LIG    1       12.179 165.341  16.891  0.00  0.00    +0.292 HD
ENDBRANCH   3  15
TORSDOF 6
ENDMDL
MODEL 7
REMARK VINA RESULT:      -6.7     19.345     24.097
REMARK  Name = 5280343
REMARK                            x       y       z     vdW  Elec       q    Type
REMARK                         _______ _______ _______ _____ _____    ______ ____
ROOT
ATOM      1  O   LIG    1       14.551 166.618  11.513  0.00  0.00    -0.451 OA
ATOM      2  C   LIG    1       13.949 165.369  11.499  0.00  0.00    +0.181 A 
ATOM      3  C   LIG    1       13.562 164.721  10.384  0.00  0.00    +0.208 A 
ATOM      4  C   LIG    1       13.800 165.359   9.067  0.00  0.00    +0.238 A 
ATOM      5  C   LIG    1       14.450 166.678   9.088  0.00  0.00    +0.109 A 
ATOM      6  C   LIG    1       14.722 167.361   7.900  0.00  0.00    +0.135 A 
ATOM      7  C   LIG    1       15.338 168.611   7.949  0.00  0.00    +0.091 A 
ATOM      8  C   LIG    1       15.682 169.176   9.178  0.00  0.00    +0.124 A 
ATOM      9  C   LIG    1       15.409 168.492  10.363  0.00  0.00    +0.092 A 
ATOM     14  O   LIG    1       13.471 164.818   8.019  0.00  0.00    -0.283 OA
ATOM     27  C   LIG    1       14.794 167.240  10.316  0.00  0.00    +0.147 A 
ENDROOT
BRANCH   2  17
ATOM     17  C   LIG    1       13.747 164.813  12.848  0.00  0.00    +0.025 A 
ATOM     18  C   LIG    1       14.717 163.985  13.414  0.00  0.00    +0.015 A 
ATOM     19  C   LIG    1       14.526 163.458  14.691  0.00  0.00    +0.050 A 
ATOM     20  C   LIG    1       13.364 163.758  15.402  0.00  0.00    +0.158 A 
ATOM     21  C   LIG    1       12.393 164.585  14.836  0.00  0.00    +0.159 A 
ATOM     26  C   LIG    1       12.585 165.113  13.559  0.00  0.00    +0.060 A 
BRANCH  21  22
ATOM     22  O   LIG    1       11.256 164.885  15.522  0.00  0.00    -0.503 OA
ATOM     23  H   LIG    1       11.406 165.665  16.082  0.00  0.00    +0.292 HD
ENDBRANCH  21  22
BRANCH  20  24
ATOM     24  O   LIG    1       13.187 163.235  16.648  0.00  0.00    -0.503 OA
ATOM     25  H   LIG    1       14.015 163.296  17.149  0.00  0.00    +0.292 HD
ENDBRANCH  20  24
ENDBRANCH   2  17
BRANCH   8  10
ATOM     10  O   LIG    1       16.283 170.397   9.222  0.00  0.00    -0.507 OA
ATOM     11  H   LIG    1       17.247 170.275   9.177  0.00  0.00    +0.292 HD
ENDBRANCH   8  10
BRANCH   6  12
ATOM     12  O   LIG    1       14.407 166.855   6.674  0.00  0.00    -0.506 OA
ATOM     13  H   LIG    1       13.538 166.426   6.696  0.00  0.00    +0.292 HD
ENDBRANCH   6  12
BRANCH   3  15
ATOM     15  O   LIG    1       12.936 163.494  10.406  0.00  0.00    -0.501 OA
ATOM     16  H   LIG    1       12.548 163.337  11.282  0.00  0.00    +0.292 HD
ENDBRANCH   3  15
TORSDOF 6
ENDMDL
MODEL 8
REMARK VINA RESULT:      -6.6      9.736     11.819
REMARK  Name = 5280343
REMARK                            x       y       z     vdW  Elec       q    Type
REMARK                         _______ _______ _______ _____ _____    ______ ____
ROOT
ATOM      1  O   LIG    1       21.543 164.709  21.782  0.00  0.00    -0.451 OA
ATOM      2  C   LIG    1       20.906 163.477  21.801  0.00  0.00    +0.181 A 
ATOM      3  C   LIG    1       21.297 162.429  22.549  0.00  0.00    +0.208 A 
ATOM      4  C   LIG    1       22.476 162.582  23.435  0.00  0.00    +0.238 A 
ATOM      5  C   LIG    1       23.138 163.895  23.420  0.00  0.00    +0.109 A 
ATOM      6  C   LIG    1       24.255 164.141  24.222  0.00  0.00    +0.135 A 
ATOM      7  C   LIG    1       24.865 165.395  24.186  0.00  0.00    +0.091 A 
ATOM      8  C   LIG    1       24.362 166.398  23.355  0.00  0.00    +0.124 A 
ATOM      9  C   LIG    1       23.246 166.148  22.556  0.00  0.00    +0.092 A 
ATOM     14  O   LIG    1       22.877 161.664  24.140  0.00  0.00    -0.283 OA
ATOM     27  C   LIG    1       22.633 164.894  22.590  0.00  0.00    +0.147 A 
ENDROOT
BRANCH   2  17
ATOM     17  C   LIG    1       19.751 163.412  20.889  0.00  0.00    +0.025 A 
ATOM     18  C   LIG    1       18.466 163.660  21.373  0.00  0.00    +0.015 A 
ATOM     19  C   LIG    1       17.372 163.598  20.510  0.00  0.00    +0.050 A 
ATOM     20  C   LIG    1       17.562 163.289  19.163  0.00  0.00    +0.158 A 
ATOM     21  C   LIG    1       18.847 163.040  18.679  0.00  0.00    +0.159 A 
ATOM     26  C   LIG    1       19.941 163.103  19.543  0.00  0.00    +0.060 A 
BRANCH  21  22
ATOM     22  O   LIG    1       19.045 162.739  17.366  0.00  0.00    -0.503 OA
ATOM     23  H   LIG    1       19.429 161.851  17.287  0.00  0.00    +0.292 HD
ENDBRANCH  21  22
BRANCH  20  24
ATOM     24  O   LIG    1       16.486 163.229  18.331  0.00  0.00    -0.503 OA
ATOM     25  H   LIG    1       16.635 163.800  17.560  0.00  0.00    +0.292 HD
ENDBRANCH  20  24
ENDBRANCH   2  17
BRANCH   8  10
ATOM     10  O   LIG    1       24.960 167.620  23.324  0.00  0.00    -0.507 OA
ATOM     11  H   LIG    1       24.599 168.128  22.577  0.00  0.00    +0.292 HD
ENDBRANCH   8  10
BRANCH   6  12
ATOM     12  O   LIG    1       24.787 163.199  25.050  0.00  0.00    -0.506 OA
ATOM     13  H   LIG    1       24.148 162.490  25.214  0.00  0.00    +0.292 HD
ENDBRANCH   6  12
BRANCH   3  15
ATOM     15  O   LIG    1       20.661 161.206  22.521  0.00  0.00    -0.501 OA
ATOM     16  H   LIG    1       21.289 160.514  22.255  0.00  0.00    +0.292 HD
ENDBRANCH   3  15
TORSDOF 6
ENDMDL
MODEL 9
REMARK VINA RESULT:      -6.6      2.277      6.845
REMARK  Name = 5280343
REMARK                            x       y       z     vdW  Elec       q    Type
REMARK                         _______ _______ _______ _____ _____    ______ ____
ROOT
ATOM      1  O   LIG    1       23.514 158.602  30.511  0.00  0.00    -0.451 OA
ATOM      2  C   LIG    1       23.609 157.245  30.247  0.00  0.00    +0.181 A 
ATOM      3  C   LIG    1       23.133 156.648  29.138  0.00  0.00    +0.208 A 
ATOM      4  C   LIG    1       22.472 157.482  28.105  0.00  0.00    +0.238 A 
ATOM      5  C   LIG    1       22.386 158.923  28.386  0.00  0.00    +0.109 A 
ATOM      6  C   LIG    1       21.785 159.794  27.475  0.00  0.00    +0.135 A 
ATOM      7  C   LIG    1       21.715 161.156  27.767  0.00  0.00    +0.091 A 
ATOM      8  C   LIG    1       22.244 161.646  28.963  0.00  0.00    +0.124 A 
ATOM      9  C   LIG    1       22.843 160.773  29.871  0.00  0.00    +0.092 A 
ATOM     14  O   LIG    1       22.020 156.996  27.076  0.00  0.00    -0.283 OA
ATOM     27  C   LIG    1       22.915 159.410  29.580  0.00  0.00    +0.147 A 
ENDROOT
BRANCH   2  17
ATOM     17  C   LIG    1       24.274 156.494  31.326  0.00  0.00    +0.025 A 
ATOM     18  C   LIG    1       25.661 156.341  31.317  0.00  0.00    +0.015 A 
ATOM     19  C   LIG    1       26.290 155.629  32.339  0.00  0.00    +0.050 A 
ATOM     20  C   LIG    1       25.534 155.071  33.369  0.00  0.00    +0.158 A 
ATOM     21  C   LIG    1       24.147 155.223  33.377  0.00  0.00    +0.159 A 
ATOM     26  C   LIG    1       23.517 155.935  32.356  0.00  0.00    +0.060 A 
BRANCH  21  22
ATOM     22  O   LIG    1       23.399 154.683  34.379  0.00  0.00    -0.503 OA
ATOM     23  H   LIG    1       22.500 154.506  34.058  0.00  0.00    +0.292 HD
ENDBRANCH  21  22
BRANCH  20  24
ATOM     24  O   LIG    1       26.160 154.376  34.359  0.00  0.00    -0.503 OA
ATOM     25  H   LIG    1       26.598 153.595  33.986  0.00  0.00    +0.292 HD
ENDBRANCH  20  24
ENDBRANCH   2  17
BRANCH   8  10
ATOM     10  O   LIG    1       22.174 162.976  29.244  0.00  0.00    -0.507 OA
ATOM     11  H   LIG    1       23.072 163.311  29.408  0.00  0.00    +0.292 HD
ENDBRANCH   8  10
BRANCH   6  12
ATOM     12  O   LIG    1       21.253 159.370  26.294  0.00  0.00    -0.506 OA
ATOM     13  H   LIG    1       21.955 159.165  25.659  0.00  0.00    +0.292 HD
ENDBRANCH   6  12
BRANCH   3  15
ATOM     15  O   LIG    1       23.214 155.290  28.920  0.00  0.00    -0.501 OA
ATOM     16  H   LIG    1       24.078 154.960  29.217  0.00  0.00    +0.292 HD
ENDBRANCH   3  15
TORSDOF 6
ENDMDL
