MODEL 1
REMARK VINA RESULT:      -7.3      0.000      0.000
REMARK  Name = 9823887
REMARK                            x       y       z     vdW  Elec       q    Type
REMARK                         _______ _______ _______ _____ _____    ______ ____
ROOT
ATOM      1  O   LIG    1       21.372 158.690  27.001  0.00  0.00    -0.341 OA
ATOM      2  C   LIG    1       22.236 157.636  27.420  0.00  0.00    +0.282 C 
ATOM      3  C   LIG    1       21.807 156.310  26.791  0.00  0.00    +0.201 C 
ATOM      4  C   LIG    1       21.704 156.422  25.271  0.00  0.00    +0.179 C 
ATOM      5  C   LIG    1       20.902 157.656  24.859  0.00  0.00    +0.177 C 
ATOM     22  C   LIG    1       21.410 158.902  25.589  0.00  0.00    +0.178 C 
ENDROOT
BRANCH   5   6
ATOM      6  O   LIG    1       21.023 157.850  23.453  0.00  0.00    -0.386 OA
ATOM      7  H   LIG    1       20.332 158.477  23.176  0.00  0.00    +0.210 HD
ENDBRANCH   5   6
BRANCH   4   8
ATOM      8  O   LIG    1       21.038 155.269  24.753  0.00  0.00    -0.386 OA
ATOM      9  H   LIG    1       21.676 154.535  24.764  0.00  0.00    +0.210 HD
ENDBRANCH   4   8
BRANCH   3  10
ATOM     10  O   LIG    1       22.779 155.321  27.129  0.00  0.00    -0.384 OA
ATOM     11  H   LIG    1       23.640 155.762  27.220  0.00  0.00    +0.210 HD
ENDBRANCH   3  10
BRANCH   2  12
ATOM     12  O   LIG    1       22.171 157.494  28.837  0.00  0.00    -0.345 OA
BRANCH  12  13
ATOM     13  C   LIG    1       22.755 158.606  29.496  0.00  0.00    +0.190 C 
BRANCH  13  14
ATOM     14  C   LIG    1       23.391 158.136  30.764  0.00  0.00    +0.001 C 
ATOM     15  C   LIG    1       23.809 156.875  30.956  0.00  0.00    +0.006 C 
BRANCH  15  16
ATOM     16  C   LIG    1       24.453 156.371  32.181  0.00  0.00    -0.025 A 
ATOM     17  C   LIG    1       25.835 156.390  32.279  0.00  0.00    +0.008 A 
ATOM     18  C   LIG    1       26.444 155.913  33.439  0.00  0.00    +0.001 A 
ATOM     19  C   LIG    1       25.664 155.421  34.485  0.00  0.00    +0.000 A 
ATOM     20  C   LIG    1       24.274 155.407  34.372  0.00  0.00    +0.001 A 
ATOM     21  C   LIG    1       23.664 155.885  33.212  0.00  0.00    +0.008 A 
ENDBRANCH  15  16
ENDBRANCH  13  14
ENDBRANCH  12  13
ENDBRANCH   2  12
BRANCH  22  23
ATOM     23  C   LIG    1       20.550 160.125  25.283  0.00  0.00    +0.197 C 
BRANCH  23  24
ATOM     24  O   LIG    1       20.076 160.660  26.506  0.00  0.00    -0.346 OA
BRANCH  24  25
ATOM     25  C   LIG    1       18.742 161.142  26.389  0.00  0.00    +0.281 C 
ATOM     26  C   LIG    1       17.769 159.961  26.252  0.00  0.00    +0.201 C 
ATOM     27  C   LIG    1       17.565 159.225  27.580  0.00  0.00    +0.178 C 
ATOM     28  C   LIG    1       17.256 160.225  28.695  0.00  0.00    +0.171 C 
ATOM     29  C   LIG    1       18.309 161.326  28.736  0.00  0.00    +0.197 C 
ATOM     36  O   LIG    1       18.383 161.997  27.480  0.00  0.00    -0.346 OA
BRANCH  28  30
ATOM     30  O   LIG    1       17.195 159.551  29.944  0.00  0.00    -0.387 OA
ATOM     31  H   LIG    1       17.557 160.151  30.620  0.00  0.00    +0.210 HD
ENDBRANCH  28  30
BRANCH  27  32
ATOM     32  O   LIG    1       18.749 158.501  27.911  0.00  0.00    -0.386 OA
ATOM     33  H   LIG    1       19.451 158.795  27.305  0.00  0.00    +0.210 HD
ENDBRANCH  27  32
BRANCH  26  34
ATOM     34  O   LIG    1       16.517 160.472  25.799  0.00  0.00    -0.384 OA
ATOM     35  H   LIG    1       15.834 159.799  25.957  0.00  0.00    +0.210 HD
ENDBRANCH  26  34
ENDBRANCH  24  25
ENDBRANCH  23  24
ENDBRANCH  22  23
TORSDOF 13
ENDMDL
MODEL 2
REMARK VINA RESULT:      -7.2     16.336     18.008
REMARK  Name = 9823887
REMARK                            x       y       z     vdW  Elec       q    Type
REMARK                         _______ _______ _______ _____ _____    ______ ____
ROOT
ATOM      1  O   LIG    1       13.007 143.542  28.468  0.00  0.00    -0.341 OA
ATOM      2  C   LIG    1       14.249 143.282  27.819  0.00  0.00    +0.282 C 
ATOM      3  C   LIG    1       14.835 144.573  27.247  0.00  0.00    +0.201 C 
ATOM      4  C   LIG    1       14.943 145.658  28.318  0.00  0.00    +0.179 C 
ATOM      5  C   LIG    1       13.638 145.796  29.099  0.00  0.00    +0.177 C 
ATOM     22  C   LIG    1       13.145 144.429  29.580  0.00  0.00    +0.178 C 
ENDROOT
BRANCH   5   6
ATOM      6  O   LIG    1       13.849 146.644  30.226  0.00  0.00    -0.386 OA
ATOM      7  H   LIG    1       13.768 146.100  31.029  0.00  0.00    +0.210 HD
ENDBRANCH   5   6
BRANCH   4   8
ATOM      8  O   LIG    1       15.221 146.914  27.696  0.00  0.00    -0.386 OA
ATOM      9  H   LIG    1       15.964 147.318  28.176  0.00  0.00    +0.210 HD
ENDBRANCH   4   8
BRANCH   3  10
ATOM     10  O   LIG    1       16.135 144.285  26.731  0.00  0.00    -0.384 OA
ATOM     11  H   LIG    1       16.378 143.387  27.013  0.00  0.00    +0.210 HD
ENDBRANCH   3  10
BRANCH   2  12
ATOM     12  O   LIG    1       14.047 142.373  26.739  0.00  0.00    -0.345 OA
BRANCH  12  13
ATOM     13  C   LIG    1       13.031 141.431  27.039  0.00  0.00    +0.190 C 
BRANCH  13  14
ATOM     14  C   LIG    1       13.666 140.104  27.303  0.00  0.00    +0.001 C 
ATOM     15  C   LIG    1       14.047 139.262  26.329  0.00  0.00    +0.006 C 
BRANCH  15  16
ATOM     16  C   LIG    1       14.690 137.953  26.541  0.00  0.00    -0.025 A 
ATOM     17  C   LIG    1       14.758 137.053  25.490  0.00  0.00    +0.008 A 
ATOM     18  C   LIG    1       15.366 135.814  25.691  0.00  0.00    +0.001 A 
ATOM     19  C   LIG    1       15.897 135.491  26.940  0.00  0.00    +0.000 A 
ATOM     20  C   LIG    1       15.821 136.408  27.988  0.00  0.00    +0.001 A 
ATOM     21  C   LIG    1       15.213 137.647  27.787  0.00  0.00    +0.008 A 
ENDBRANCH  15  16
ENDBRANCH  13  14
ENDBRANCH  12  13
ENDBRANCH   2  12
BRANCH  22  23
ATOM     23  C   LIG    1       11.783 144.527  30.262  0.00  0.00    +0.197 C 
BRANCH  23  24
ATOM     24  O   LIG    1       10.974 145.425  29.526  0.00  0.00    -0.346 OA
BRANCH  24  25
ATOM     25  C   LIG    1        9.588 145.152  29.701  0.00  0.00    +0.281 C 
ATOM     26  C   LIG    1        8.953 146.226  30.598  0.00  0.00    +0.201 C 
ATOM     27  C   LIG    1        8.770 147.558  29.862  0.00  0.00    +0.178 C 
ATOM     28  C   LIG    1        8.093 147.324  28.511  0.00  0.00    +0.171 C 
ATOM     29  C   LIG    1        8.836 146.257  27.716  0.00  0.00    +0.197 C 
ATOM     36  O   LIG    1        8.901 145.037  28.450  0.00  0.00    -0.346 OA
BRANCH  28  30
ATOM     30  O   LIG    1        8.041 148.541  27.780  0.00  0.00    -0.387 OA
ATOM     31  H   LIG    1        7.800 149.248  28.403  0.00  0.00    +0.210 HD
ENDBRANCH  28  30
BRANCH  27  32
ATOM     32  O   LIG    1       10.043 148.166  29.652  0.00  0.00    -0.386 OA
ATOM     33  H   LIG    1       10.583 147.544  29.135  0.00  0.00    +0.210 HD
ENDBRANCH  27  32
BRANCH  26  34
ATOM     34  O   LIG    1        7.681 145.746  31.028  0.00  0.00    -0.384 OA
ATOM     35  H   LIG    1        7.822 145.084  31.725  0.00  0.00    +0.210 HD
ENDBRANCH  26  34
ENDBRANCH  24  25
ENDBRANCH  23  24
ENDBRANCH  22  23
TORSDOF 13
ENDMDL
MODEL 3
REMARK VINA RESULT:      -7.1      1.228      2.047
REMARK  Name = 9823887
REMARK                            x       y       z     vdW  Elec       q    Type
REMARK                         _______ _______ _______ _____ _____    ______ ____
ROOT
ATOM      1  O   LIG    1       21.573 158.544  26.916  0.00  0.00    -0.341 OA
ATOM      2  C   LIG    1       22.275 157.413  27.427  0.00  0.00    +0.282 C 
ATOM      3  C   LIG    1       21.689 156.119  26.860  0.00  0.00    +0.201 C 
ATOM      4  C   LIG    1       21.646 156.149  25.333  0.00  0.00    +0.179 C 
ATOM      5  C   LIG    1       21.031 157.450  24.822  0.00  0.00    +0.177 C 
ATOM     22  C   LIG    1       21.681 158.661  25.496  0.00  0.00    +0.178 C 
ENDROOT
BRANCH   5   6
ATOM      6  O   LIG    1       21.218 157.539  23.411  0.00  0.00    -0.386 OA
ATOM      7  H   LIG    1       22.143 157.307  23.217  0.00  0.00    +0.210 HD
ENDBRANCH   5   6
BRANCH   4   8
ATOM      8  O   LIG    1       20.845 155.065  24.859  0.00  0.00    -0.386 OA
ATOM      9  H   LIG    1       20.927 155.046  23.890  0.00  0.00    +0.210 HD
ENDBRANCH   4   8
BRANCH   3  10
ATOM     10  O   LIG    1       22.507 155.032  27.291  0.00  0.00    -0.384 OA
ATOM     11  H   LIG    1       23.416 155.359  27.389  0.00  0.00    +0.210 HD
ENDBRANCH   3  10
BRANCH   2  12
ATOM     12  O   LIG    1       22.149 157.369  28.847  0.00  0.00    -0.345 OA
BRANCH  12  13
ATOM     13  C   LIG    1       22.743 158.506  29.453  0.00  0.00    +0.190 C 
BRANCH  13  14
ATOM     14  C   LIG    1       23.417 158.080  30.718  0.00  0.00    +0.001 C 
ATOM     15  C   LIG    1       23.721 156.804  30.997  0.00  0.00    +0.006 C 
BRANCH  15  16
ATOM     16  C   LIG    1       24.397 156.340  32.222  0.00  0.00    -0.025 A 
ATOM     17  C   LIG    1       23.636 155.885  33.287  0.00  0.00    +0.008 A 
ATOM     18  C   LIG    1       24.277 155.446  34.445  0.00  0.00    +0.001 A 
ATOM     19  C   LIG    1       25.669 155.469  34.524  0.00  0.00    +0.000 A 
ATOM     20  C   LIG    1       26.422 155.929  33.445  0.00  0.00    +0.001 A 
ATOM     21  C   LIG    1       25.781 156.368  32.285  0.00  0.00    +0.008 A 
ENDBRANCH  15  16
ENDBRANCH  13  14
ENDBRANCH  12  13
ENDBRANCH   2  12
BRANCH  22  23
ATOM     23  C   LIG    1       21.005 159.966  25.088  0.00  0.00    +0.197 C 
BRANCH  23  24
ATOM     24  O   LIG    1       19.968 160.244  26.012  0.00  0.00    -0.346 OA
BRANCH  24  25
ATOM     25  C   LIG    1       19.595 161.618  25.991  0.00  0.00    +0.281 C 
ATOM     26  C   LIG    1       19.038 161.987  24.607  0.00  0.00    +0.201 C 
ATOM     27  C   LIG    1       17.629 161.428  24.385  0.00  0.00    +0.178 C 
ATOM     28  C   LIG    1       16.736 161.761  25.581  0.00  0.00    +0.171 C 
ATOM     29  C   LIG    1       17.394 161.321  26.882  0.00  0.00    +0.197 C 
ATOM     36  O   LIG    1       18.669 161.939  27.035  0.00  0.00    -0.346 OA
BRANCH  28  30
ATOM     30  O   LIG    1       15.470 161.133  25.428  0.00  0.00    -0.387 OA
ATOM     31  H   LIG    1       15.166 160.866  26.313  0.00  0.00    +0.210 HD
ENDBRANCH  28  30
BRANCH  27  32
ATOM     32  O   LIG    1       17.697 160.012  24.228  0.00  0.00    -0.386 OA
ATOM     33  H   LIG    1       16.789 159.667  24.283  0.00  0.00    +0.210 HD
ENDBRANCH  27  32
BRANCH  26  34
ATOM     34  O   LIG    1       19.002 163.409  24.512  0.00  0.00    -0.384 OA
ATOM     35  H   LIG    1       19.217 163.662  23.599  0.00  0.00    +0.210 HD
ENDBRANCH  26  34
ENDBRANCH  24  25
ENDBRANCH  23  24
ENDBRANCH  22  23
TORSDOF 13
ENDMDL
MODEL 4
REMARK VINA RESULT:      -6.9     16.317     18.704
REMARK  Name = 9823887
REMARK                            x       y       z     vdW  Elec       q    Type
REMARK                         _______ _______ _______ _____ _____    ______ ____
ROOT
ATOM      1  O   LIG    1       12.956 143.057  27.980  0.00  0.00    -0.341 OA
ATOM      2  C   LIG    1       14.249 142.963  27.385  0.00  0.00    +0.282 C 
ATOM      3  C   LIG    1       14.809 144.357  27.100  0.00  0.00    +0.201 C 
ATOM      4  C   LIG    1       14.796 145.230  28.354  0.00  0.00    +0.179 C 
ATOM      5  C   LIG    1       13.438 145.177  29.051  0.00  0.00    +0.177 C 
ATOM     22  C   LIG    1       12.979 143.729  29.240  0.00  0.00    +0.178 C 
ENDROOT
BRANCH   5   6
ATOM      6  O   LIG    1       13.536 145.811  30.324  0.00  0.00    -0.386 OA
ATOM      7  H   LIG    1       14.390 146.276  30.362  0.00  0.00    +0.210 HD
ENDBRANCH   5   6
BRANCH   4   8
ATOM      8  O   LIG    1       15.054 146.587  27.991  0.00  0.00    -0.386 OA
ATOM      9  H   LIG    1       15.582 146.575  27.174  0.00  0.00    +0.210 HD
ENDBRANCH   4   8
BRANCH   3  10
ATOM     10  O   LIG    1       16.151 144.212  26.636  0.00  0.00    -0.384 OA
ATOM     11  H   LIG    1       16.533 143.424  27.057  0.00  0.00    +0.210 HD
ENDBRANCH   3  10
BRANCH   2  12
ATOM     12  O   LIG    1       14.160 142.261  26.147  0.00  0.00    -0.345 OA
BRANCH  12  13
ATOM     13  C   LIG    1       13.077 141.346  26.148  0.00  0.00    +0.190 C 
BRANCH  13  14
ATOM     14  C   LIG    1       12.718 141.023  24.733  0.00  0.00    +0.001 C 
ATOM     15  C   LIG    1       11.453 140.881  24.308  0.00  0.00    +0.006 C 
BRANCH  15  16
ATOM     16  C   LIG    1       11.051 140.578  22.923  0.00  0.00    -0.025 A 
ATOM     17  C   LIG    1       10.387 141.543  22.182  0.00  0.00    +0.008 A 
ATOM     18  C   LIG    1       10.008 141.255  20.871  0.00  0.00    +0.001 A 
ATOM     19  C   LIG    1       10.296 140.008  20.318  0.00  0.00    +0.000 A 
ATOM     20  C   LIG    1       10.965 139.047  21.076  0.00  0.00    +0.001 A 
ATOM     21  C   LIG    1       11.345 139.334  22.388  0.00  0.00    +0.008 A 
ENDBRANCH  15  16
ENDBRANCH  13  14
ENDBRANCH  12  13
ENDBRANCH   2  12
BRANCH  22  23
ATOM     23  C   LIG    1       11.574 143.653  29.829  0.00  0.00    +0.197 C 
BRANCH  23  24
ATOM     24  O   LIG    1       10.737 144.545  29.114  0.00  0.00    -0.346 OA
BRANCH  24  25
ATOM     25  C   LIG    1        9.440 144.630  29.693  0.00  0.00    +0.281 C 
ATOM     26  C   LIG    1        9.445 145.655  30.838  0.00  0.00    +0.201 C 
ATOM     27  C   LIG    1        9.493 147.097  30.321  0.00  0.00    +0.178 C 
ATOM     28  C   LIG    1        8.433 147.303  29.237  0.00  0.00    +0.171 C 
ATOM     29  C   LIG    1        8.557 146.238  28.156  0.00  0.00    +0.197 C 
ATOM     36  O   LIG    1        8.436 144.934  28.719  0.00  0.00    -0.346 OA
BRANCH  28  30
ATOM     30  O   LIG    1        8.567 148.600  28.673  0.00  0.00    -0.387 OA
ATOM     31  H   LIG    1        7.674 148.918  28.451  0.00  0.00    +0.210 HD
ENDBRANCH  28  30
BRANCH  27  32
ATOM     32  O   LIG    1       10.784 147.365  29.775  0.00  0.00    -0.386 OA
ATOM     33  H   LIG    1       10.855 148.328  29.653  0.00  0.00    +0.210 HD
ENDBRANCH  27  32
BRANCH  26  34
ATOM     34  O   LIG    1        8.256 145.468  31.603  0.00  0.00    -0.384 OA
ATOM     35  H   LIG    1        7.682 146.240  31.473  0.00  0.00    +0.210 HD
ENDBRANCH  26  34
ENDBRANCH  24  25
ENDBRANCH  23  24
ENDBRANCH  22  23
TORSDOF 13
ENDMDL
MODEL 5
REMARK VINA RESULT:      -6.9      3.822      5.259
REMARK  Name = 9823887
REMARK                            x       y       z     vdW  Elec       q    Type
REMARK                         _______ _______ _______ _____ _____    ______ ____
ROOT
ATOM      1  O   LIG    1       22.040 160.410  27.784  0.00  0.00    -0.341 OA
ATOM      2  C   LIG    1       22.082 158.988  27.881  0.00  0.00    +0.282 C 
ATOM      3  C   LIG    1       20.967 158.361  27.044  0.00  0.00    +0.201 C 
ATOM      4  C   LIG    1       21.009 158.857  25.599  0.00  0.00    +0.179 C 
ATOM      5  C   LIG    1       21.124 160.380  25.540  0.00  0.00    +0.177 C 
ATOM     22  C   LIG    1       22.251 160.875  26.451  0.00  0.00    +0.178 C 
ENDROOT
BRANCH   5   6
ATOM      6  O   LIG    1       21.391 160.781  24.199  0.00  0.00    -0.386 OA
ATOM      7  H   LIG    1       20.538 160.905  23.747  0.00  0.00    +0.210 HD
ENDBRANCH   5   6
BRANCH   4   8
ATOM      8  O   LIG    1       19.804 158.479  24.931  0.00  0.00    -0.386 OA
ATOM      9  H   LIG    1       20.053 158.128  24.059  0.00  0.00    +0.210 HD
ENDBRANCH   4   8
BRANCH   3  10
ATOM     10  O   LIG    1       21.136 156.944  27.064  0.00  0.00    -0.384 OA
ATOM     11  H   LIG    1       21.011 156.612  26.159  0.00  0.00    +0.210 HD
ENDBRANCH   3  10
BRANCH   2  12
ATOM     12  O   LIG    1       21.891 158.591  29.238  0.00  0.00    -0.345 OA
BRANCH  12  13
ATOM     13  C   LIG    1       22.513 159.497  30.134  0.00  0.00    +0.190 C 
BRANCH  13  14
ATOM     14  C   LIG    1       23.397 158.727  31.062  0.00  0.00    +0.001 C 
ATOM     15  C   LIG    1       23.405 157.387  31.130  0.00  0.00    +0.006 C 
BRANCH  15  16
ATOM     16  C   LIG    1       24.267 156.587  32.016  0.00  0.00    -0.025 A 
ATOM     17  C   LIG    1       25.642 156.623  31.841  0.00  0.00    +0.008 A 
ATOM     18  C   LIG    1       26.457 155.865  32.680  0.00  0.00    +0.001 A 
ATOM     19  C   LIG    1       25.889 155.080  33.683  0.00  0.00    +0.000 A 
ATOM     20  C   LIG    1       24.505 155.053  33.848  0.00  0.00    +0.001 A 
ATOM     21  C   LIG    1       23.688 155.811  33.008  0.00  0.00    +0.008 A 
ENDBRANCH  15  16
ENDBRANCH  13  14
ENDBRANCH  12  13
ENDBRANCH   2  12
BRANCH  22  23
ATOM     23  C   LIG    1       22.310 162.399  26.499  0.00  0.00    +0.197 C 
BRANCH  23  24
ATOM     24  O   LIG    1       23.030 162.858  25.369  0.00  0.00    -0.346 OA
BRANCH  24  25
ATOM     25  C   LIG    1       22.824 164.248  25.140  0.00  0.00    +0.281 C 
ATOM     26  C   LIG    1       23.821 165.069  25.971  0.00  0.00    +0.201 C 
ATOM     27  C   LIG    1       25.239 165.011  25.392  0.00  0.00    +0.178 C 
ATOM     28  C   LIG    1       25.207 165.310  23.893  0.00  0.00    +0.171 C 
ATOM     29  C   LIG    1       24.199 164.412  23.187  0.00  0.00    +0.197 C 
ATOM     36  O   LIG    1       22.899 164.579  23.749  0.00  0.00    -0.346 OA
BRANCH  28  30
ATOM     30  O   LIG    1       26.503 165.131  23.338  0.00  0.00    -0.387 OA
ATOM     31  H   LIG    1       27.101 165.757  23.781  0.00  0.00    +0.210 HD
ENDBRANCH  28  30
BRANCH  27  32
ATOM     32  O   LIG    1       25.789 163.712  25.603  0.00  0.00    -0.386 OA
ATOM     33  H   LIG    1       25.667 163.491  26.542  0.00  0.00    +0.210 HD
ENDBRANCH  27  32
BRANCH  26  34
ATOM     34  O   LIG    1       23.372 166.422  25.988  0.00  0.00    -0.384 OA
ATOM     35  H   LIG    1       24.005 166.949  26.503  0.00  0.00    +0.210 HD
ENDBRANCH  26  34
ENDBRANCH  24  25
ENDBRANCH  23  24
ENDBRANCH  22  23
TORSDOF 13
ENDMDL
MODEL 6
REMARK VINA RESULT:      -6.8     11.588     13.761
REMARK  Name = 9823887
REMARK                            x       y       z     vdW  Elec       q    Type
REMARK                         _______ _______ _______ _____ _____    ______ ____
ROOT
ATOM      1  O   LIG    1       17.509 164.890  18.111  0.00  0.00    -0.341 OA
ATOM      2  C   LIG    1       18.891 164.612  17.896  0.00  0.00    +0.282 C 
ATOM      3  C   LIG    1       19.060 163.304  17.122  0.00  0.00    +0.201 C 
ATOM      4  C   LIG    1       18.251 163.316  15.826  0.00  0.00    +0.179 C 
ATOM      5  C   LIG    1       16.814 163.774  16.074  0.00  0.00    +0.177 C 
ATOM     22  C   LIG    1       16.790 165.069  16.890  0.00  0.00    +0.178 C 
ENDROOT
BRANCH   5   6
ATOM      6  O   LIG    1       16.165 163.992  14.824  0.00  0.00    -0.386 OA
ATOM      7  H   LIG    1       16.534 164.803  14.432  0.00  0.00    +0.210 HD
ENDBRANCH   5   6
BRANCH   4   8
ATOM      8  O   LIG    1       18.205 161.996  15.281  0.00  0.00    -0.386 OA
ATOM      9  H   LIG    1       17.342 161.890  14.847  0.00  0.00    +0.210 HD
ENDBRANCH   4   8
BRANCH   3  10
ATOM     10  O   LIG    1       20.445 163.142  16.815  0.00  0.00    -0.384 OA
ATOM     11  H   LIG    1       20.738 163.926  16.322  0.00  0.00    +0.210 HD
ENDBRANCH   3  10
BRANCH   2  12
ATOM     12  O   LIG    1       19.555 164.470  19.151  0.00  0.00    -0.345 OA
BRANCH  12  13
ATOM     13  C   LIG    1       19.301 165.579  19.998  0.00  0.00    +0.190 C 
BRANCH  13  14
ATOM     14  C   LIG    1       19.970 166.787  19.424  0.00  0.00    +0.001 C 
ATOM     15  C   LIG    1       19.856 168.014  19.955  0.00  0.00    +0.006 C 
BRANCH  15  16
ATOM     16  C   LIG    1       20.508 169.228  19.433  0.00  0.00    -0.025 A 
ATOM     17  C   LIG    1       20.482 169.482  18.071  0.00  0.00    +0.008 A 
ATOM     18  C   LIG    1       21.098 170.631  17.579  0.00  0.00    +0.001 A 
ATOM     19  C   LIG    1       21.734 171.512  18.453  0.00  0.00    +0.000 A 
ATOM     20  C   LIG    1       21.753 171.244  19.822  0.00  0.00    +0.001 A 
ATOM     21  C   LIG    1       21.136 170.094  20.315  0.00  0.00    +0.008 A 
ENDBRANCH  15  16
ENDBRANCH  13  14
ENDBRANCH  12  13
ENDBRANCH   2  12
BRANCH  22  23
ATOM     23  C   LIG    1       15.367 165.484  17.250  0.00  0.00    +0.197 C 
BRANCH  23  24
ATOM     24  O   LIG    1       15.068 164.993  18.544  0.00  0.00    -0.346 OA
BRANCH  24  25
ATOM     25  C   LIG    1       13.931 164.137  18.535  0.00  0.00    +0.281 C 
ATOM     26  C   LIG    1       14.359 162.705  18.178  0.00  0.00    +0.201 C 
ATOM     27  C   LIG    1       15.081 162.013  19.339  0.00  0.00    +0.178 C 
ATOM     28  C   LIG    1       14.277 162.173  20.630  0.00  0.00    +0.171 C 
ATOM     29  C   LIG    1       13.942 163.638  20.876  0.00  0.00    +0.197 C 
ATOM     36  O   LIG    1       13.216 164.180  19.775  0.00  0.00    -0.346 OA
BRANCH  28  30
ATOM     30  O   LIG    1       15.010 161.641  21.724  0.00  0.00    -0.387 OA
ATOM     31  H   LIG    1       15.580 162.351  22.069  0.00  0.00    +0.210 HD
ENDBRANCH  28  30
BRANCH  27  32
ATOM     32  O   LIG    1       16.372 162.594  19.513  0.00  0.00    -0.386 OA
ATOM     33  H   LIG    1       16.990 161.876  19.733  0.00  0.00    +0.210 HD
ENDBRANCH  27  32
BRANCH  26  34
ATOM     34  O   LIG    1       13.186 161.965  17.844  0.00  0.00    -0.384 OA
ATOM     35  H   LIG    1       13.285 161.624  16.939  0.00  0.00    +0.210 HD
ENDBRANCH  26  34
ENDBRANCH  24  25
ENDBRANCH  23  24
ENDBRANCH  22  23
TORSDOF 13
ENDMDL
MODEL 7
REMARK VINA RESULT:      -6.8     12.815     18.275
REMARK  Name = 9823887
REMARK                            x       y       z     vdW  Elec       q    Type
REMARK                         _______ _______ _______ _____ _____    ______ ____
ROOT
ATOM      1  O   LIG    1       13.065 164.264  16.425  0.00  0.00    -0.341 OA
ATOM      2  C   LIG    1       12.382 164.235  15.174  0.00  0.00    +0.282 C 
ATOM      3  C   LIG    1       13.270 164.803  14.066  0.00  0.00    +0.201 C 
ATOM      4  C   LIG    1       14.623 164.095  14.018  0.00  0.00    +0.179 C 
ATOM      5  C   LIG    1       15.251 164.006  15.409  0.00  0.00    +0.177 C 
ATOM     22  C   LIG    1       14.245 163.459  16.425  0.00  0.00    +0.178 C 
ENDROOT
BRANCH   5   6
ATOM      6  O   LIG    1       16.387 163.146  15.360  0.00  0.00    -0.386 OA
ATOM      7  H   LIG    1       16.988 163.482  14.673  0.00  0.00    +0.210 HD
ENDBRANCH   5   6
BRANCH   4   8
ATOM      8  O   LIG    1       15.515 164.829  13.177  0.00  0.00    -0.386 OA
ATOM      9  H   LIG    1       15.276 164.630  12.256  0.00  0.00    +0.210 HD
ENDBRANCH   4   8
BRANCH   3  10
ATOM     10  O   LIG    1       12.597 164.626  12.819  0.00  0.00    -0.384 OA
ATOM     11  H   LIG    1       11.789 165.164  12.834  0.00  0.00    +0.210 HD
ENDBRANCH   3  10
BRANCH   2  12
ATOM     12  O   LIG    1       11.204 165.035  15.248  0.00  0.00    -0.345 OA
BRANCH  12  13
ATOM     13  C   LIG    1       11.516 166.388  15.542  0.00  0.00    +0.190 C 
BRANCH  13  14
ATOM     14  C   LIG    1       10.241 167.151  15.707  0.00  0.00    +0.001 C 
ATOM     15  C   LIG    1        9.097 166.817  15.091  0.00  0.00    +0.006 C 
BRANCH  15  16
ATOM     16  C   LIG    1        7.815 167.529  15.235  0.00  0.00    -0.025 A 
ATOM     17  C   LIG    1        7.270 167.697  16.498  0.00  0.00    +0.008 A 
ATOM     18  C   LIG    1        6.057 168.371  16.633  0.00  0.00    +0.001 A 
ATOM     19  C   LIG    1        5.404 168.868  15.505  0.00  0.00    +0.000 A 
ATOM     20  C   LIG    1        5.965 168.692  14.241  0.00  0.00    +0.001 A 
ATOM     21  C   LIG    1        7.179 168.017  14.105  0.00  0.00    +0.008 A 
ENDBRANCH  15  16
ENDBRANCH  13  14
ENDBRANCH  12  13
ENDBRANCH   2  12
BRANCH  22  23
ATOM     23  C   LIG    1       14.811 163.470  17.842  0.00  0.00    +0.197 C 
BRANCH  23  24
ATOM     24  O   LIG    1       15.997 164.243  17.847  0.00  0.00    -0.346 OA
BRANCH  24  25
ATOM     25  C   LIG    1       16.775 164.008  19.016  0.00  0.00    +0.281 C 
ATOM     26  C   LIG    1       18.045 163.225  18.651  0.00  0.00    +0.201 C 
ATOM     27  C   LIG    1       19.078 164.102  17.936  0.00  0.00    +0.178 C 
ATOM     28  C   LIG    1       19.290 165.404  18.710  0.00  0.00    +0.171 C 
ATOM     29  C   LIG    1       17.957 166.089  18.984  0.00  0.00    +0.197 C 
ATOM     36  O   LIG    1       17.086 165.223  19.707  0.00  0.00    -0.346 OA
BRANCH  28  30
ATOM     30  O   LIG    1       20.149 166.266  17.979  0.00  0.00    -0.387 OA
ATOM     31  H   LIG    1       20.214 165.918  17.073  0.00  0.00    +0.210 HD
ENDBRANCH  28  30
BRANCH  27  32
ATOM     32  O   LIG    1       18.616 164.407  16.620  0.00  0.00    -0.386 OA
ATOM     33  H   LIG    1       17.739 164.817  16.705  0.00  0.00    +0.210 HD
ENDBRANCH  27  32
BRANCH  26  34
ATOM     34  O   LIG    1       18.611 162.716  19.856  0.00  0.00    -0.384 OA
ATOM     35  H   LIG    1       18.616 163.428  20.518  0.00  0.00    +0.210 HD
ENDBRANCH  26  34
ENDBRANCH  24  25
ENDBRANCH  23  24
ENDBRANCH  22  23
TORSDOF 13
ENDMDL
MODEL 8
REMARK VINA RESULT:      -6.6      8.795     12.542
REMARK  Name = 9823887
REMARK                            x       y       z     vdW  Elec       q    Type
REMARK                         _______ _______ _______ _____ _____    ______ ____
ROOT
ATOM      1  O   LIG    1       22.212 165.558  22.140  0.00  0.00    -0.341 OA
ATOM      2  C   LIG    1       22.399 164.366  22.901  0.00  0.00    +0.282 C 
ATOM      3  C   LIG    1       23.888 164.050  23.043  0.00  0.00    +0.201 C 
ATOM      4  C   LIG    1       24.659 165.241  23.610  0.00  0.00    +0.179 C 
ATOM      5  C   LIG    1       24.310 166.531  22.868  0.00  0.00    +0.177 C 
ATOM     22  C   LIG    1       22.792 166.704  22.765  0.00  0.00    +0.178 C 
ENDROOT
BRANCH   5   6
ATOM      6  O   LIG    1       24.865 167.642  23.567  0.00  0.00    -0.386 OA
ATOM      7  H   LIG    1       24.139 168.252  23.784  0.00  0.00    +0.210 HD
ENDBRANCH   5   6
BRANCH   4   8
ATOM      8  O   LIG    1       26.062 165.014  23.463  0.00  0.00    -0.386 OA
ATOM      9  H   LIG    1       26.436 164.919  24.356  0.00  0.00    +0.210 HD
ENDBRANCH   4   8
BRANCH   3  10
ATOM     10  O   LIG    1       24.026 162.934  23.922  0.00  0.00    -0.384 OA
ATOM     11  H   LIG    1       23.792 162.130  23.428  0.00  0.00    +0.210 HD
ENDBRANCH   3  10
BRANCH   2  12
ATOM     12  O   LIG    1       21.776 163.268  22.238  0.00  0.00    -0.345 OA
BRANCH  12  13
ATOM     13  C   LIG    1       20.427 163.114  22.648  0.00  0.00    +0.190 C 
BRANCH  13  14
ATOM     14  C   LIG    1       19.557 163.057  21.434  0.00  0.00    +0.001 C 
ATOM     15  C   LIG    1       19.978 163.409  20.209  0.00  0.00    +0.006 C 
BRANCH  15  16
ATOM     16  C   LIG    1       19.162 163.356  18.984  0.00  0.00    -0.025 A 
ATOM     17  C   LIG    1       17.781 163.412  19.084  0.00  0.00    +0.008 A 
ATOM     18  C   LIG    1       17.010 163.362  17.923  0.00  0.00    +0.001 A 
ATOM     19  C   LIG    1       17.628 163.255  16.678  0.00  0.00    +0.000 A 
ATOM     20  C   LIG    1       19.019 163.200  16.592  0.00  0.00    +0.001 A 
ATOM     21  C   LIG    1       19.791 163.250  17.753  0.00  0.00    +0.008 A 
ENDBRANCH  15  16
ENDBRANCH  13  14
ENDBRANCH  12  13
ENDBRANCH   2  12
BRANCH  22  23
ATOM     23  C   LIG    1       22.419 167.924  21.928  0.00  0.00    +0.197 C 
BRANCH  23  24
ATOM     24  O   LIG    1       21.477 167.526  20.948  0.00  0.00    -0.346 OA
BRANCH  24  25
ATOM     25  C   LIG    1       20.404 168.455  20.839  0.00  0.00    +0.281 C 
ATOM     26  C   LIG    1       20.463 169.165  19.477  0.00  0.00    +0.201 C 
ATOM     27  C   LIG    1       20.012 168.253  18.332  0.00  0.00    +0.178 C 
ATOM     28  C   LIG    1       18.683 167.583  18.684  0.00  0.00    +0.171 C 
ATOM     29  C   LIG    1       18.770 166.898  20.042  0.00  0.00    +0.197 C 
ATOM     36  O   LIG    1       19.132 167.834  21.055  0.00  0.00    -0.346 OA
BRANCH  28  30
ATOM     30  O   LIG    1       18.334 166.643  17.677  0.00  0.00    -0.387 OA
ATOM     31  H   LIG    1       18.897 165.859  17.799  0.00  0.00    +0.210 HD
ENDBRANCH  28  30
BRANCH  27  32
ATOM     32  O   LIG    1       21.000 167.249  18.104  0.00  0.00    -0.386 OA
ATOM     33  H   LIG    1       21.808 167.522  18.571  0.00  0.00    +0.210 HD
ENDBRANCH  27  32
BRANCH  26  34
ATOM     34  O   LIG    1       19.609 170.305  19.537  0.00  0.00    -0.384 OA
ATOM     35  H   LIG    1       18.817 170.124  19.005  0.00  0.00    +0.210 HD
ENDBRANCH  26  34
ENDBRANCH  24  25
ENDBRANCH  23  24
ENDBRANCH  22  23
TORSDOF 13
ENDMDL
MODEL 9
REMARK VINA RESULT:      -6.6     11.288     15.186
REMARK  Name = 9823887
REMARK                            x       y       z     vdW  Elec       q    Type
REMARK                         _______ _______ _______ _____ _____    ______ ____
ROOT
ATOM      1  O   LIG    1       14.809 165.661  20.543  0.00  0.00    -0.341 OA
ATOM      2  C   LIG    1       13.464 165.329  20.880  0.00  0.00    +0.282 C 
ATOM      3  C   LIG    1       13.191 163.851  20.597  0.00  0.00    +0.201 C 
ATOM      4  C   LIG    1       14.214 162.953  21.291  0.00  0.00    +0.179 C 
ATOM      5  C   LIG    1       15.641 163.438  21.035  0.00  0.00    +0.177 C 
ATOM     22  C   LIG    1       15.764 164.937  21.320  0.00  0.00    +0.178 C 
ENDROOT
BRANCH   5   6
ATOM      6  O   LIG    1       16.541 162.722  21.877  0.00  0.00    -0.386 OA
ATOM      7  H   LIG    1       17.332 162.505  21.354  0.00  0.00    +0.210 HD
ENDBRANCH   5   6
BRANCH   4   8
ATOM      8  O   LIG    1       14.103 161.623  20.782  0.00  0.00    -0.386 OA
ATOM      9  H   LIG    1       14.922 161.428  20.295  0.00  0.00    +0.210 HD
ENDBRANCH   4   8
BRANCH   3  10
ATOM     10  O   LIG    1       11.883 163.538  21.076  0.00  0.00    -0.384 OA
ATOM     11  H   LIG    1       11.927 162.683  21.535  0.00  0.00    +0.210 HD
ENDBRANCH   3  10
BRANCH   2  12
ATOM     12  O   LIG    1       12.564 166.102  20.089  0.00  0.00    -0.345 OA
BRANCH  12  13
ATOM     13  C   LIG    1       13.247 166.799  19.060  0.00  0.00    +0.190 C 
BRANCH  13  14
ATOM     14  C   LIG    1       12.986 166.112  17.758  0.00  0.00    +0.001 C 
ATOM     15  C   LIG    1       13.935 165.470  17.060  0.00  0.00    +0.006 C 
BRANCH  15  16
ATOM     16  C   LIG    1       13.722 164.768  15.783  0.00  0.00    -0.025 A 
ATOM     17  C   LIG    1       13.198 163.485  15.792  0.00  0.00    +0.008 A 
ATOM     18  C   LIG    1       12.996 162.821  14.582  0.00  0.00    +0.001 A 
ATOM     19  C   LIG    1       13.321 163.447  13.379  0.00  0.00    +0.000 A 
ATOM     20  C   LIG    1       13.848 164.739  13.385  0.00  0.00    +0.001 A 
ATOM     21  C   LIG    1       14.050 165.403  14.596  0.00  0.00    +0.008 A 
ENDBRANCH  15  16
ENDBRANCH  13  14
ENDBRANCH  12  13
ENDBRANCH   2  12
BRANCH  22  23
ATOM     23  C   LIG    1       17.148 165.469  20.961  0.00  0.00    +0.197 C 
BRANCH  23  24
ATOM     24  O   LIG    1       17.715 164.623  19.977  0.00  0.00    -0.346 OA
BRANCH  24  25
ATOM     25  C   LIG    1       18.291 165.367  18.909  0.00  0.00    +0.281 C 
ATOM     26  C   LIG    1       19.659 164.775  18.538  0.00  0.00    +0.201 C 
ATOM     27  C   LIG    1       19.528 163.455  17.771  0.00  0.00    +0.178 C 
ATOM     28  C   LIG    1       18.528 163.611  16.623  0.00  0.00    +0.171 C 
ATOM     29  C   LIG    1       17.211 164.181  17.132  0.00  0.00    +0.197 C 
ATOM     36  O   LIG    1       17.422 165.437  17.773  0.00  0.00    -0.346 OA
BRANCH  28  30
ATOM     30  O   LIG    1       18.315 162.354  15.996  0.00  0.00    -0.387 OA
ATOM     31  H   LIG    1       18.334 161.672  16.690  0.00  0.00    +0.210 HD
ENDBRANCH  28  30
BRANCH  27  32
ATOM     32  O   LIG    1       19.074 162.432  18.656  0.00  0.00    -0.386 OA
ATOM     33  H   LIG    1       19.764 161.748  18.690  0.00  0.00    +0.210 HD
ENDBRANCH  27  32
BRANCH  26  34
ATOM     34  O   LIG    1       20.346 165.726  17.727  0.00  0.00    -0.384 OA
ATOM     35  H   LIG    1       21.157 165.995  18.189  0.00  0.00    +0.210 HD
ENDBRANCH  26  34
ENDBRANCH  24  25
ENDBRANCH  23  24
ENDBRANCH  22  23
TORSDOF 13
ENDMDL
