MODEL 1
REMARK VINA RESULT:      -6.8      0.000      0.000
REMARK  Name = 5280343
REMARK                            x       y       z     vdW  Elec       q    Type
REMARK                         _______ _______ _______ _____ _____    ______ ____
ROOT
ATOM      1  O   LIG    1       14.391 142.287  27.228  0.00  0.00    -0.451 OA
ATOM      2  C   LIG    1       13.597 141.234  27.657  0.00  0.00    +0.181 A 
ATOM      3  C   LIG    1       12.655 141.330  28.612  0.00  0.00    +0.208 A 
ATOM      4  C   LIG    1       12.417 142.645  29.254  0.00  0.00    +0.238 A 
ATOM      5  C   LIG    1       13.254 143.760  28.785  0.00  0.00    +0.109 A 
ATOM      6  C   LIG    1       13.105 145.041  29.324  0.00  0.00    +0.135 A 
ATOM      7  C   LIG    1       13.913 146.080  28.862  0.00  0.00    +0.091 A 
ATOM      8  C   LIG    1       14.863 145.843  27.868  0.00  0.00    +0.124 A 
ATOM      9  C   LIG    1       15.008 144.563  27.332  0.00  0.00    +0.092 A 
ATOM     14  O   LIG    1       11.573 142.794  30.128  0.00  0.00    -0.283 OA
ATOM     27  C   LIG    1       14.201 143.521  27.791  0.00  0.00    +0.147 A 
ENDROOT
BRANCH   2  17
ATOM     17  C   LIG    1       13.904 139.966  26.971  0.00  0.00    +0.025 A 
ATOM     18  C   LIG    1       14.892 139.122  27.477  0.00  0.00    +0.015 A 
ATOM     19  C   LIG    1       15.183 137.921  26.828  0.00  0.00    +0.050 A 
ATOM     20  C   LIG    1       14.486 137.566  25.674  0.00  0.00    +0.158 A 
ATOM     21  C   LIG    1       13.498 138.411  25.167  0.00  0.00    +0.159 A 
ATOM     26  C   LIG    1       13.206 139.611  25.817  0.00  0.00    +0.060 A 
BRANCH  21  22
ATOM     22  O   LIG    1       12.809 138.073  24.042  0.00  0.00    -0.503 OA
ATOM     23  H   LIG    1       13.428 137.768  23.358  0.00  0.00    +0.292 HD
ENDBRANCH  21  22
BRANCH  20  24
ATOM     24  O   LIG    1       14.780 136.392  25.048  0.00  0.00    -0.503 OA
ATOM     25  H   LIG    1       14.398 136.392  24.156  0.00  0.00    +0.292 HD
ENDBRANCH  20  24
ENDBRANCH   2  17
BRANCH   8  10
ATOM     10  O   LIG    1       15.649 146.860  27.420  0.00  0.00    -0.507 OA
ATOM     11  H   LIG    1       15.124 147.426  26.828  0.00  0.00    +0.292 HD
ENDBRANCH   8  10
BRANCH   6  12
ATOM     12  O   LIG    1       12.195 145.328  30.297  0.00  0.00    -0.506 OA
ATOM     13  H   LIG    1       11.647 144.552  30.489  0.00  0.00    +0.292 HD
ENDBRANCH   6  12
BRANCH   3  15
ATOM     15  O   LIG    1       11.904 140.256  29.039  0.00  0.00    -0.501 OA
ATOM     16  H   LIG    1       11.301 140.535  29.747  0.00  0.00    +0.292 HD
ENDBRANCH   3  15
TORSDOF 6
ENDMDL
MODEL 2
REMARK VINA RESULT:      -6.7     20.631     22.721
REMARK  Name = 5280343
REMARK                            x       y       z     vdW  Elec       q    Type
REMARK                         _______ _______ _______ _____ _____    ______ ____
ROOT
ATOM      1  O   LIG    1       23.730 142.681   7.631  0.00  0.00    -0.451 OA
ATOM      2  C   LIG    1       22.555 142.431   6.939  0.00  0.00    +0.181 A 
ATOM      3  C   LIG    1       21.568 141.628   7.377  0.00  0.00    +0.208 A 
ATOM      4  C   LIG    1       21.716 140.968   8.697  0.00  0.00    +0.238 A 
ATOM      5  C   LIG    1       22.959 141.248   9.431  0.00  0.00    +0.109 A 
ATOM      6  C   LIG    1       23.192 140.677  10.685  0.00  0.00    +0.135 A 
ATOM      7  C   LIG    1       24.380 140.958  11.359  0.00  0.00    +0.091 A 
ATOM      8  C   LIG    1       25.330 141.806  10.786  0.00  0.00    +0.124 A 
ATOM      9  C   LIG    1       25.093 142.374   9.534  0.00  0.00    +0.092 A 
ATOM     14  O   LIG    1       20.851 140.228   9.149  0.00  0.00    -0.283 OA
ATOM     27  C   LIG    1       23.905 142.095   8.857  0.00  0.00    +0.147 A 
ENDROOT
BRANCH   2  17
ATOM     17  C   LIG    1       22.495 143.122   5.639  0.00  0.00    +0.025 A 
ATOM     18  C   LIG    1       23.099 142.551   4.518  0.00  0.00    +0.015 A 
ATOM     19  C   LIG    1       23.043 143.205   3.287  0.00  0.00    +0.050 A 
ATOM     20  C   LIG    1       22.383 144.429   3.177  0.00  0.00    +0.158 A 
ATOM     21  C   LIG    1       21.780 145.000   4.298  0.00  0.00    +0.159 A 
ATOM     26  C   LIG    1       21.836 144.346   5.529  0.00  0.00    +0.060 A 
BRANCH  21  22
ATOM     22  O   LIG    1       21.132 146.194   4.201  0.00  0.00    -0.503 OA
ATOM     23  H   LIG    1       20.225 146.103   4.537  0.00  0.00    +0.292 HD
ENDBRANCH  21  22
BRANCH  20  24
ATOM     24  O   LIG    1       22.337 145.059   1.969  0.00  0.00    -0.503 OA
ATOM     25  H   LIG    1       22.240 144.403   1.261  0.00  0.00    +0.292 HD
ENDBRANCH  20  24
ENDBRANCH   2  17
BRANCH   8  10
ATOM     10  O   LIG    1       26.488 142.077  11.447  0.00  0.00    -0.507 OA
ATOM     11  H   LIG    1       26.328 142.008  12.404  0.00  0.00    +0.292 HD
ENDBRANCH   8  10
BRANCH   6  12
ATOM     12  O   LIG    1       22.300 139.843  11.290  0.00  0.00    -0.506 OA
ATOM     13  H   LIG    1       22.277 140.005  12.245  0.00  0.00    +0.292 HD
ENDBRANCH   6  12
BRANCH   3  15
ATOM     15  O   LIG    1       20.426 141.374   6.650  0.00  0.00    -0.501 OA
ATOM     16  H   LIG    1       19.642 141.567   7.189  0.00  0.00    +0.292 HD
ENDBRANCH   3  15
TORSDOF 6
ENDMDL
MODEL 3
REMARK VINA RESULT:      -6.7     25.894     29.444
REMARK  Name = 5280343
REMARK                            x       y       z     vdW  Elec       q    Type
REMARK                         _______ _______ _______ _____ _____    ______ ____
ROOT
ATOM      1  O   LIG    1       14.596 166.617  11.538  0.00  0.00    -0.451 OA
ATOM      2  C   LIG    1       14.023 165.355  11.558  0.00  0.00    +0.181 A 
ATOM      3  C   LIG    1       13.655 164.667  10.461  0.00  0.00    +0.208 A 
ATOM      4  C   LIG    1       13.884 165.272   9.127  0.00  0.00    +0.238 A 
ATOM      5  C   LIG    1       14.504 166.606   9.113  0.00  0.00    +0.109 A 
ATOM      6  C   LIG    1       14.765 167.261   7.907  0.00  0.00    +0.135 A 
ATOM      7  C   LIG    1       15.353 168.525   7.923  0.00  0.00    +0.091 A 
ATOM      8  C   LIG    1       15.679 169.133   9.136  0.00  0.00    +0.124 A 
ATOM      9  C   LIG    1       15.417 168.477  10.339  0.00  0.00    +0.092 A 
ATOM     14  O   LIG    1       13.572 164.695   8.094  0.00  0.00    -0.283 OA
ATOM     27  C   LIG    1       14.830 167.211  10.326  0.00  0.00    +0.147 A 
ENDROOT
BRANCH   2  17
ATOM     17  C   LIG    1       13.827 164.833  12.922  0.00  0.00    +0.025 A 
ATOM     18  C   LIG    1       14.834 164.084  13.533  0.00  0.00    +0.015 A 
ATOM     19  C   LIG    1       14.648 163.589  14.824  0.00  0.00    +0.050 A 
ATOM     20  C   LIG    1       13.458 163.843  15.504  0.00  0.00    +0.158 A 
ATOM     21  C   LIG    1       12.451 164.590  14.893  0.00  0.00    +0.159 A 
ATOM     26  C   LIG    1       12.636 165.086  13.602  0.00  0.00    +0.060 A 
BRANCH  21  22
ATOM     22  O   LIG    1       11.284 164.845  15.548  0.00  0.00    -0.503 OA
ATOM     23  H   LIG    1       10.613 165.150  14.916  0.00  0.00    +0.292 HD
ENDBRANCH  21  22
BRANCH  20  24
ATOM     24  O   LIG    1       13.287 163.352  16.763  0.00  0.00    -0.503 OA
ATOM     25  H   LIG    1       12.419 162.925  16.834  0.00  0.00    +0.292 HD
ENDBRANCH  20  24
ENDBRANCH   2  17
BRANCH   8  10
ATOM     10  O   LIG    1       16.252 170.368   9.147  0.00  0.00    -0.507 OA
ATOM     11  H   LIG    1       16.027 170.812   9.983  0.00  0.00    +0.292 HD
ENDBRANCH   8  10
BRANCH   6  12
ATOM     12  O   LIG    1       14.467 166.714   6.695  0.00  0.00    -0.506 OA
ATOM     13  H   LIG    1       14.642 167.348   5.983  0.00  0.00    +0.292 HD
ENDBRANCH   6  12
BRANCH   3  15
ATOM     15  O   LIG    1       13.057 163.427  10.515  0.00  0.00    -0.501 OA
ATOM     16  H   LIG    1       13.127 163.066  11.414  0.00  0.00    +0.292 HD
ENDBRANCH   3  15
TORSDOF 6
ENDMDL
MODEL 4
REMARK VINA RESULT:      -6.6     16.495     18.022
REMARK  Name = 5280343
REMARK                            x       y       z     vdW  Elec       q    Type
REMARK                         _______ _______ _______ _____ _____    ______ ____
ROOT
ATOM      1  O   LIG    1       24.001 156.536  30.305  0.00  0.00    -0.451 OA
ATOM      2  C   LIG    1       22.652 156.332  30.061  0.00  0.00    +0.181 A 
ATOM      3  C   LIG    1       21.791 155.789  30.941  0.00  0.00    +0.208 A 
ATOM      4  C   LIG    1       22.292 155.388  32.278  0.00  0.00    +0.238 A 
ATOM      5  C   LIG    1       23.721 155.619  32.535  0.00  0.00    +0.109 A 
ATOM      6  C   LIG    1       24.290 155.280  33.765  0.00  0.00    +0.135 A 
ATOM      7  C   LIG    1       25.649 155.508  33.982  0.00  0.00    +0.091 A 
ATOM      8  C   LIG    1       26.435 156.073  32.977  0.00  0.00    +0.124 A 
ATOM      9  C   LIG    1       25.864 156.411  31.750  0.00  0.00    +0.092 A 
ATOM     14  O   LIG    1       21.556 154.891  33.120  0.00  0.00    -0.283 OA
ATOM     27  C   LIG    1       24.504 156.185  31.530  0.00  0.00    +0.147 A 
ENDROOT
BRANCH   2  17
ATOM     17  C   LIG    1       22.242 156.753  28.709  0.00  0.00    +0.025 A 
ATOM     18  C   LIG    1       21.849 158.072  28.479  0.00  0.00    +0.015 A 
ATOM     19  C   LIG    1       21.461 158.470  27.200  0.00  0.00    +0.050 A 
ATOM     20  C   LIG    1       21.466 157.551  26.151  0.00  0.00    +0.158 A 
ATOM     21  C   LIG    1       21.858 156.232  26.382  0.00  0.00    +0.159 A 
ATOM     26  C   LIG    1       22.247 155.833  27.661  0.00  0.00    +0.060 A 
BRANCH  21  22
ATOM     22  O   LIG    1       21.867 155.326  25.365  0.00  0.00    -0.503 OA
ATOM     23  H   LIG    1       22.120 154.452  25.706  0.00  0.00    +0.292 HD
ENDBRANCH  21  22
BRANCH  20  24
ATOM     24  O   LIG    1       21.082 157.951  24.907  0.00  0.00    -0.503 OA
ATOM     25  H   LIG    1       21.857 158.249  24.405  0.00  0.00    +0.292 HD
ENDBRANCH  20  24
ENDBRANCH   2  17
BRANCH   8  10
ATOM     10  O   LIG    1       27.761 156.294  33.193  0.00  0.00    -0.507 OA
ATOM     11  H   LIG    1       28.268 155.551  32.824  0.00  0.00    +0.292 HD
ENDBRANCH   8  10
BRANCH   6  12
ATOM     12  O   LIG    1       23.569 154.725  34.780  0.00  0.00    -0.506 OA
ATOM     13  H   LIG    1       24.142 154.196  35.355  0.00  0.00    +0.292 HD
ENDBRANCH   6  12
BRANCH   3  15
ATOM     15  O   LIG    1       20.461 155.569  30.655  0.00  0.00    -0.501 OA
ATOM     16  H   LIG    1       20.372 155.197  29.762  0.00  0.00    +0.292 HD
ENDBRANCH   3  15
TORSDOF 6
ENDMDL
MODEL 5
REMARK VINA RESULT:      -6.6     13.585     17.417
REMARK  Name = 5280343
REMARK                            x       y       z     vdW  Elec       q    Type
REMARK                         _______ _______ _______ _____ _____    ______ ____
ROOT
ATOM      1  O   LIG    1       22.207 155.328  33.685  0.00  0.00    -0.451 OA
ATOM      2  C   LIG    1       21.552 155.325  32.463  0.00  0.00    +0.181 A 
ATOM      3  C   LIG    1       22.139 155.594  31.282  0.00  0.00    +0.208 A 
ATOM      4  C   LIG    1       23.589 155.900  31.258  0.00  0.00    +0.238 A 
ATOM      5  C   LIG    1       24.281 155.889  32.556  0.00  0.00    +0.109 A 
ATOM      6  C   LIG    1       25.649 156.162  32.639  0.00  0.00    +0.135 A 
ATOM      7  C   LIG    1       26.279 156.145  33.883  0.00  0.00    +0.091 A 
ATOM      8  C   LIG    1       25.549 155.859  35.037  0.00  0.00    +0.124 A 
ATOM      9  C   LIG    1       24.183 155.587  34.950  0.00  0.00    +0.092 A 
ATOM     14  O   LIG    1       24.179 156.151  30.214  0.00  0.00    -0.283 OA
ATOM     27  C   LIG    1       23.550 155.601  33.707  0.00  0.00    +0.147 A 
ENDROOT
BRANCH   2  17
ATOM     17  C   LIG    1       20.116 155.017  32.581  0.00  0.00    +0.025 A 
ATOM     18  C   LIG    1       19.200 156.042  32.818  0.00  0.00    +0.015 A 
ATOM     19  C   LIG    1       17.841 155.751  32.930  0.00  0.00    +0.050 A 
ATOM     20  C   LIG    1       17.397 154.435  32.806  0.00  0.00    +0.158 A 
ATOM     21  C   LIG    1       18.313 153.409  32.571  0.00  0.00    +0.159 A 
ATOM     26  C   LIG    1       19.672 153.700  32.457  0.00  0.00    +0.060 A 
BRANCH  21  22
ATOM     22  O   LIG    1       17.890 152.120  32.446  0.00  0.00    -0.503 OA
ATOM     23  H   LIG    1       18.590 151.583  32.040  0.00  0.00    +0.292 HD
ENDBRANCH  21  22
BRANCH  20  24
ATOM     24  O   LIG    1       16.067 154.162  32.920  0.00  0.00    -0.503 OA
ATOM     25  H   LIG    1       15.818 153.473  32.284  0.00  0.00    +0.292 HD
ENDBRANCH  20  24
ENDBRANCH   2  17
BRANCH   8  10
ATOM     10  O   LIG    1       26.168 155.844  36.249  0.00  0.00    -0.507 OA
ATOM     11  H   LIG    1       26.266 154.922  36.542  0.00  0.00    +0.292 HD
ENDBRANCH   8  10
BRANCH   6  12
ATOM     12  O   LIG    1       26.409 156.448  31.545  0.00  0.00    -0.506 OA
ATOM     13  H   LIG    1       26.950 155.684  31.297  0.00  0.00    +0.292 HD
ENDBRANCH   6  12
BRANCH   3  15
ATOM     15  O   LIG    1       21.452 155.615  30.088  0.00  0.00    -0.501 OA
ATOM     16  H   LIG    1       21.784 154.914  29.504  0.00  0.00    +0.292 HD
ENDBRANCH   3  15
TORSDOF 6
ENDMDL
MODEL 6
REMARK VINA RESULT:      -6.5     27.562     30.456
REMARK  Name = 5280343
REMARK                            x       y       z     vdW  Elec       q    Type
REMARK                         _______ _______ _______ _____ _____    ______ ____
ROOT
ATOM      1  O   LIG    1       13.552 164.444   8.562  0.00  0.00    -0.451 OA
ATOM      2  C   LIG    1       14.377 164.836   7.520  0.00  0.00    +0.181 A 
ATOM      3  C   LIG    1       15.510 165.547   7.670  0.00  0.00    +0.208 A 
ATOM      4  C   LIG    1       15.935 165.934   9.037  0.00  0.00    +0.238 A 
ATOM      5  C   LIG    1       15.062 165.503  10.139  0.00  0.00    +0.109 A 
ATOM      6  C   LIG    1       15.376 165.815  11.464  0.00  0.00    +0.135 A 
ATOM      7  C   LIG    1       14.529 165.395  12.490  0.00  0.00    +0.091 A 
ATOM      8  C   LIG    1       13.375 164.668  12.194  0.00  0.00    +0.124 A 
ATOM      9  C   LIG    1       13.064 164.359  10.870  0.00  0.00    +0.092 A 
ATOM     14  O   LIG    1       16.957 166.579   9.237  0.00  0.00    -0.283 OA
ATOM     27  C   LIG    1       13.910 164.776   9.842  0.00  0.00    +0.147 A 
ENDROOT
BRANCH   2  17
ATOM     17  C   LIG    1       13.877 164.414   6.199  0.00  0.00    +0.025 A 
ATOM     18  C   LIG    1       12.880 165.154   5.563  0.00  0.00    +0.015 A 
ATOM     19  C   LIG    1       12.406 164.755   4.313  0.00  0.00    +0.050 A 
ATOM     20  C   LIG    1       12.929 163.617   3.700  0.00  0.00    +0.158 A 
ATOM     21  C   LIG    1       13.926 162.877   4.336  0.00  0.00    +0.159 A 
ATOM     26  C   LIG    1       14.401 163.277   5.586  0.00  0.00    +0.060 A 
BRANCH  21  22
ATOM     22  O   LIG    1       14.445 161.765   3.745  0.00  0.00    -0.503 OA
ATOM     23  H   LIG    1       14.459 161.882   2.781  0.00  0.00    +0.292 HD
ENDBRANCH  21  22
BRANCH  20  24
ATOM     24  O   LIG    1       12.456 163.236   2.480  0.00  0.00    -0.503 OA
ATOM     25  H   LIG    1       13.013 163.613   1.781  0.00  0.00    +0.292 HD
ENDBRANCH  20  24
ENDBRANCH   2  17
BRANCH   8  10
ATOM     10  O   LIG    1       12.551 164.260  13.198  0.00  0.00    -0.507 OA
ATOM     11  H   LIG    1       12.241 165.042  13.688  0.00  0.00    +0.292 HD
ENDBRANCH   8  10
BRANCH   6  12
ATOM     12  O   LIG    1       16.489 166.522  11.808  0.00  0.00    -0.506 OA
ATOM     13  H   LIG    1       17.191 165.926  12.109  0.00  0.00    +0.292 HD
ENDBRANCH   6  12
BRANCH   3  15
ATOM     15  O   LIG    1       16.293 165.950   6.610  0.00  0.00    -0.501 OA
ATOM     16  H   LIG    1       16.873 165.222   6.333  0.00  0.00    +0.292 HD
ENDBRANCH   3  15
TORSDOF 6
ENDMDL
MODEL 7
REMARK VINA RESULT:      -6.5     24.464     27.610
REMARK  Name = 5280343
REMARK                            x       y       z     vdW  Elec       q    Type
REMARK                         _______ _______ _______ _____ _____    ______ ____
ROOT
ATOM      1  O   LIG    1       14.758 165.200  13.124  0.00  0.00    -0.451 OA
ATOM      2  C   LIG    1       14.160 164.383  12.177  0.00  0.00    +0.181 A 
ATOM      3  C   LIG    1       13.429 163.290  12.465  0.00  0.00    +0.208 A 
ATOM      4  C   LIG    1       13.220 162.923  13.887  0.00  0.00    +0.238 A 
ATOM      5  C   LIG    1       13.846 163.802  14.886  0.00  0.00    +0.109 A 
ATOM      6  C   LIG    1       13.706 163.545  16.252  0.00  0.00    +0.135 A 
ATOM      7  C   LIG    1       14.312 164.393  17.178  0.00  0.00    +0.091 A 
ATOM      8  C   LIG    1       15.053 165.493  16.743  0.00  0.00    +0.124 A 
ATOM      9  C   LIG    1       15.192 165.747  15.379  0.00  0.00    +0.092 A 
ATOM     14  O   LIG    1       12.563 161.942  14.211  0.00  0.00    -0.283 OA
ATOM     27  C   LIG    1       14.586 164.900  14.450  0.00  0.00    +0.147 A 
ENDROOT
BRANCH   2  17
ATOM     17  C   LIG    1       14.423 164.816  10.794  0.00  0.00    +0.025 A 
ATOM     18  C   LIG    1       13.419 164.718   9.829  0.00  0.00    +0.015 A 
ATOM     19  C   LIG    1       13.668 165.128   8.520  0.00  0.00    +0.050 A 
ATOM     20  C   LIG    1       14.920 165.637   8.174  0.00  0.00    +0.158 A 
ATOM     21  C   LIG    1       15.924 165.734   9.138  0.00  0.00    +0.159 A 
ATOM     26  C   LIG    1       15.674 165.325  10.448  0.00  0.00    +0.060 A 
BRANCH  21  22
ATOM     22  O   LIG    1       17.149 166.231   8.812  0.00  0.00    -0.503 OA
ATOM     23  H   LIG    1       17.210 167.161   9.084  0.00  0.00    +0.292 HD
ENDBRANCH  21  22
BRANCH  20  24
ATOM     24  O   LIG    1       15.152 166.032   6.891  0.00  0.00    -0.503 OA
ATOM     25  H   LIG    1       14.528 165.589   6.294  0.00  0.00    +0.292 HD
ENDBRANCH  20  24
ENDBRANCH   2  17
BRANCH   8  10
ATOM     10  O   LIG    1       15.643 166.318  17.651  0.00  0.00    -0.507 OA
ATOM     11  H   LIG    1       15.024 166.474  18.385  0.00  0.00    +0.292 HD
ENDBRANCH   8  10
BRANCH   6  12
ATOM     12  O   LIG    1       12.994 162.486  16.731  0.00  0.00    -0.506 OA
ATOM     13  H   LIG    1       12.940 162.521  17.698  0.00  0.00    +0.292 HD
ENDBRANCH   6  12
BRANCH   3  15
ATOM     15  O   LIG    1       12.874 162.479  11.499  0.00  0.00    -0.501 OA
ATOM     16  H   LIG    1       13.524 162.309  10.798  0.00  0.00    +0.292 HD
ENDBRANCH   3  15
TORSDOF 6
ENDMDL
MODEL 8
REMARK VINA RESULT:      -6.5     23.763     25.184
REMARK  Name = 5280343
REMARK                            x       y       z     vdW  Elec       q    Type
REMARK                         _______ _______ _______ _____ _____    ______ ____
ROOT
ATOM      1  O   LIG    1       16.312 163.441  15.552  0.00  0.00    -0.451 OA
ATOM      2  C   LIG    1       14.958 163.728  15.479  0.00  0.00    +0.181 A 
ATOM      3  C   LIG    1       14.169 163.964  16.544  0.00  0.00    +0.208 A 
ATOM      4  C   LIG    1       14.771 163.939  17.899  0.00  0.00    +0.238 A 
ATOM      5  C   LIG    1       16.211 163.646  17.968  0.00  0.00    +0.109 A 
ATOM      6  C   LIG    1       16.873 163.602  19.198  0.00  0.00    +0.135 A 
ATOM      7  C   LIG    1       18.239 163.321  19.235  0.00  0.00    +0.091 A 
ATOM      8  C   LIG    1       18.939 163.086  18.051  0.00  0.00    +0.124 A 
ATOM      9  C   LIG    1       18.275 163.130  16.825  0.00  0.00    +0.092 A 
ATOM     14  O   LIG    1       14.105 164.147  18.905  0.00  0.00    -0.283 OA
ATOM     27  C   LIG    1       16.909 163.412  16.785  0.00  0.00    +0.147 A 
ENDROOT
BRANCH   2  17
ATOM     17  C   LIG    1       14.443 163.728  14.098  0.00  0.00    +0.025 A 
ATOM     18  C   LIG    1       14.671 164.827  13.269  0.00  0.00    +0.015 A 
ATOM     19  C   LIG    1       14.183 164.827  11.962  0.00  0.00    +0.050 A 
ATOM     20  C   LIG    1       13.469 163.729  11.484  0.00  0.00    +0.158 A 
ATOM     21  C   LIG    1       13.240 162.630  12.313  0.00  0.00    +0.159 A 
ATOM     26  C   LIG    1       13.729 162.630  13.620  0.00  0.00    +0.060 A 
BRANCH  21  22
ATOM     22  O   LIG    1       12.545 161.552  11.856  0.00  0.00    -0.503 OA
ATOM     23  H   LIG    1       12.991 160.734  12.130  0.00  0.00    +0.292 HD
ENDBRANCH  21  22
BRANCH  20  24
ATOM     24  O   LIG    1       12.996 163.742  10.206  0.00  0.00    -0.503 OA
ATOM     25  H   LIG    1       13.738 163.748   9.582  0.00  0.00    +0.292 HD
ENDBRANCH  20  24
ENDBRANCH   2  17
BRANCH   8  10
ATOM     10  O   LIG    1       20.272 162.811  18.091  0.00  0.00    -0.507 OA
ATOM     11  H   LIG    1       20.422 162.066  18.699  0.00  0.00    +0.292 HD
ENDBRANCH   8  10
BRANCH   6  12
ATOM     12  O   LIG    1       16.237 163.824  20.383  0.00  0.00    -0.506 OA
ATOM     13  H   LIG    1       15.982 162.984  20.794  0.00  0.00    +0.292 HD
ENDBRANCH   6  12
BRANCH   3  15
ATOM     15  O   LIG    1       12.818 164.215  16.440  0.00  0.00    -0.501 OA
ATOM     16  H   LIG    1       12.344 163.390  16.247  0.00  0.00    +0.292 HD
ENDBRANCH   3  15
TORSDOF 6
ENDMDL
MODEL 9
REMARK VINA RESULT:      -6.4     14.759     18.248
REMARK  Name = 5280343
REMARK                            x       y       z     vdW  Elec       q    Type
REMARK                         _______ _______ _______ _____ _____    ______ ____
ROOT
ATOM      1  O   LIG    1       24.855 155.955  28.699  0.00  0.00    -0.451 OA
ATOM      2  C   LIG    1       23.640 156.088  29.353  0.00  0.00    +0.181 A 
ATOM      3  C   LIG    1       23.503 156.259  30.681  0.00  0.00    +0.208 A 
ATOM      4  C   LIG    1       24.722 156.330  31.522  0.00  0.00    +0.238 A 
ATOM      5  C   LIG    1       26.008 156.201  30.820  0.00  0.00    +0.109 A 
ATOM      6  C   LIG    1       27.215 156.258  31.522  0.00  0.00    +0.135 A 
ATOM      7  C   LIG    1       28.420 156.131  30.832  0.00  0.00    +0.091 A 
ATOM      8  C   LIG    1       28.421 155.949  29.448  0.00  0.00    +0.124 A 
ATOM      9  C   LIG    1       27.214 155.892  28.750  0.00  0.00    +0.092 A 
ATOM     14  O   LIG    1       24.661 156.485  32.735  0.00  0.00    -0.283 OA
ATOM     27  C   LIG    1       26.007 156.020  29.438  0.00  0.00    +0.147 A 
ENDROOT
BRANCH   2  17
ATOM     17  C   LIG    1       22.484 156.000  28.443  0.00  0.00    +0.025 A 
ATOM     18  C   LIG    1       22.172 157.073  27.606  0.00  0.00    +0.015 A 
ATOM     19  C   LIG    1       21.078 156.990  26.745  0.00  0.00    +0.050 A 
ATOM     20  C   LIG    1       20.296 155.836  26.721  0.00  0.00    +0.158 A 
ATOM     21  C   LIG    1       20.607 154.764  27.558  0.00  0.00    +0.159 A 
ATOM     26  C   LIG    1       21.702 154.846  28.418  0.00  0.00    +0.060 A 
BRANCH  21  22
ATOM     22  O   LIG    1       19.850 153.631  27.541  0.00  0.00    -0.503 OA
ATOM     23  H   LIG    1       19.540 153.430  28.439  0.00  0.00    +0.292 HD
ENDBRANCH  21  22
BRANCH  20  24
ATOM     24  O   LIG    1       19.228 155.768  25.877  0.00  0.00    -0.503 OA
ATOM     25  H   LIG    1       19.538 155.727  24.959  0.00  0.00    +0.292 HD
ENDBRANCH  20  24
ENDBRANCH   2  17
BRANCH   8  10
ATOM     10  O   LIG    1       29.599 155.826  28.778  0.00  0.00    -0.507 OA
ATOM     11  H   LIG    1       30.332 155.894  29.414  0.00  0.00    +0.292 HD
ENDBRANCH   8  10
BRANCH   6  12
ATOM     12  O   LIG    1       27.271 156.433  32.872  0.00  0.00    -0.506 OA
ATOM     13  H   LIG    1       26.392 156.635  33.226  0.00  0.00    +0.292 HD
ENDBRANCH   6  12
BRANCH   3  15
ATOM     15  O   LIG    1       22.278 156.355  31.305  0.00  0.00    -0.501 OA
ATOM     16  H   LIG    1       21.883 155.473  31.394  0.00  0.00    +0.292 HD
ENDBRANCH   3  15
TORSDOF 6
ENDMDL
