MODEL 1
REMARK VINA RESULT:      -7.3      0.000      0.000
REMARK  Name = 9823887
REMARK                            x       y       z     vdW  Elec       q    Type
REMARK                         _______ _______ _______ _____ _____    ______ ____
ROOT
ATOM      1  O   LIG    1       12.999 143.557  28.394  0.00  0.00    -0.341 OA
ATOM      2  C   LIG    1       14.252 143.236  27.793  0.00  0.00    +0.282 C 
ATOM      3  C   LIG    1       14.925 144.498  27.253  0.00  0.00    +0.201 C 
ATOM      4  C   LIG    1       15.044 145.572  28.333  0.00  0.00    +0.179 C 
ATOM      5  C   LIG    1       13.717 145.774  29.062  0.00  0.00    +0.177 C 
ATOM     22  C   LIG    1       13.136 144.431  29.515  0.00  0.00    +0.178 C 
ENDROOT
BRANCH   5   6
ATOM      6  O   LIG    1       13.925 146.605  30.201  0.00  0.00    -0.386 OA
ATOM      7  H   LIG    1       13.065 146.735  30.638  0.00  0.00    +0.210 HD
ENDBRANCH   5   6
BRANCH   4   8
ATOM      8  O   LIG    1       15.410 146.814  27.730  0.00  0.00    -0.386 OA
ATOM      9  H   LIG    1       14.934 146.879  26.885  0.00  0.00    +0.210 HD
ENDBRANCH   4   8
BRANCH   3  10
ATOM     10  O   LIG    1       16.228 144.145  26.789  0.00  0.00    -0.384 OA
ATOM     11  H   LIG    1       16.346 143.189  26.918  0.00  0.00    +0.210 HD
ENDBRANCH   3  10
BRANCH   2  12
ATOM     12  O   LIG    1       14.049 142.342  26.701  0.00  0.00    -0.345 OA
BRANCH  12  13
ATOM     13  C   LIG    1       13.045 141.384  26.997  0.00  0.00    +0.190 C 
BRANCH  13  14
ATOM     14  C   LIG    1       13.548 140.027  26.623  0.00  0.00    +0.001 C 
ATOM     15  C   LIG    1       14.365 139.304  27.404  0.00  0.00    +0.006 C 
BRANCH  15  16
ATOM     16  C   LIG    1       14.874 137.959  27.085  0.00  0.00    -0.025 A 
ATOM     17  C   LIG    1       14.749 137.474  25.793  0.00  0.00    +0.008 A 
ATOM     18  C   LIG    1       15.232 136.201  25.492  0.00  0.00    +0.001 A 
ATOM     19  C   LIG    1       15.832 135.428  26.485  0.00  0.00    +0.000 A 
ATOM     20  C   LIG    1       15.951 135.929  27.782  0.00  0.00    +0.001 A 
ATOM     21  C   LIG    1       15.468 137.203  28.083  0.00  0.00    +0.008 A 
ENDBRANCH  15  16
ENDBRANCH  13  14
ENDBRANCH  12  13
ENDBRANCH   2  12
BRANCH  22  23
ATOM     23  C   LIG    1       11.755 144.596  30.142  0.00  0.00    +0.197 C 
BRANCH  23  24
ATOM     24  O   LIG    1       10.989 145.462  29.325  0.00  0.00    -0.346 OA
BRANCH  24  25
ATOM     25  C   LIG    1       10.177 146.338  30.099  0.00  0.00    +0.281 C 
ATOM     26  C   LIG    1        9.704 147.516  29.233  0.00  0.00    +0.201 C 
ATOM     27  C   LIG    1        8.609 147.101  28.245  0.00  0.00    +0.178 C 
ATOM     28  C   LIG    1        7.514 146.317  28.970  0.00  0.00    +0.171 C 
ATOM     29  C   LIG    1        8.115 145.167  29.768  0.00  0.00    +0.197 C 
ATOM     36  O   LIG    1        9.074 145.653  30.704  0.00  0.00    -0.346 OA
BRANCH  28  30
ATOM     30  O   LIG    1        6.568 145.827  28.030  0.00  0.00    -0.387 OA
ATOM     31  H   LIG    1        6.827 146.158  27.153  0.00  0.00    +0.210 HD
ENDBRANCH  28  30
BRANCH  27  32
ATOM     32  O   LIG    1        9.174 146.284  27.221  0.00  0.00    -0.386 OA
ATOM     33  H   LIG    1        9.746 145.626  27.654  0.00  0.00    +0.210 HD
ENDBRANCH  27  32
BRANCH  26  34
ATOM     34  O   LIG    1        9.198 148.526  30.102  0.00  0.00    -0.384 OA
ATOM     35  H   LIG    1        9.936 148.882  30.623  0.00  0.00    +0.210 HD
ENDBRANCH  26  34
ENDBRANCH  24  25
ENDBRANCH  23  24
ENDBRANCH  22  23
TORSDOF 13
ENDMDL
MODEL 2
REMARK VINA RESULT:      -7.1      2.230      3.206
REMARK  Name = 9823887
REMARK                            x       y       z     vdW  Elec       q    Type
REMARK                         _______ _______ _______ _____ _____    ______ ____
ROOT
ATOM      1  O   LIG    1       12.999 143.510  28.391  0.00  0.00    -0.341 OA
ATOM      2  C   LIG    1       14.256 143.169  27.809  0.00  0.00    +0.282 C 
ATOM      3  C   LIG    1       14.937 144.415  27.241  0.00  0.00    +0.201 C 
ATOM      4  C   LIG    1       15.051 145.516  28.294  0.00  0.00    +0.179 C 
ATOM      5  C   LIG    1       13.718 145.741  29.007  0.00  0.00    +0.177 C 
ATOM     22  C   LIG    1       13.130 144.413  29.489  0.00  0.00    +0.178 C 
ENDROOT
BRANCH   5   6
ATOM      6  O   LIG    1       13.920 146.602  30.125  0.00  0.00    -0.386 OA
ATOM      7  H   LIG    1       14.422 146.107  30.796  0.00  0.00    +0.210 HD
ENDBRANCH   5   6
BRANCH   4   8
ATOM      8  O   LIG    1       15.426 146.742  27.662  0.00  0.00    -0.386 OA
ATOM      9  H   LIG    1       15.048 147.467  28.187  0.00  0.00    +0.210 HD
ENDBRANCH   4   8
BRANCH   3  10
ATOM     10  O   LIG    1       16.243 144.046  26.797  0.00  0.00    -0.384 OA
ATOM     11  H   LIG    1       16.463 144.592  26.023  0.00  0.00    +0.210 HD
ENDBRANCH   3  10
BRANCH   2  12
ATOM     12  O   LIG    1       14.058 142.248  26.739  0.00  0.00    -0.345 OA
BRANCH  12  13
ATOM     13  C   LIG    1       13.397 141.074  27.183  0.00  0.00    +0.190 C 
BRANCH  13  14
ATOM     14  C   LIG    1       12.484 140.596  26.100  0.00  0.00    +0.001 C 
ATOM     15  C   LIG    1       12.702 140.828  24.796  0.00  0.00    +0.006 C 
BRANCH  15  16
ATOM     16  C   LIG    1       11.839 140.366  23.695  0.00  0.00    -0.025 A 
ATOM     17  C   LIG    1       10.854 141.208  23.205  0.00  0.00    +0.008 A 
ATOM     18  C   LIG    1       10.038 140.770  22.163  0.00  0.00    +0.001 A 
ATOM     19  C   LIG    1       10.215 139.495  21.625  0.00  0.00    +0.000 A 
ATOM     20  C   LIG    1       11.211 138.658  22.129  0.00  0.00    +0.001 A 
ATOM     21  C   LIG    1       12.028 139.097  23.171  0.00  0.00    +0.008 A 
ENDBRANCH  15  16
ENDBRANCH  13  14
ENDBRANCH  12  13
ENDBRANCH   2  12
BRANCH  22  23
ATOM     23  C   LIG    1       11.744 144.598  30.101  0.00  0.00    +0.197 C 
BRANCH  23  24
ATOM     24  O   LIG    1       10.999 145.471  29.272  0.00  0.00    -0.346 OA
BRANCH  24  25
ATOM     25  C   LIG    1       10.199 146.369  30.035  0.00  0.00    +0.281 C 
ATOM     26  C   LIG    1        9.706 147.518  29.143  0.00  0.00    +0.201 C 
ATOM     27  C   LIG    1        8.594 147.071  28.189  0.00  0.00    +0.178 C 
ATOM     28  C   LIG    1        7.515 146.307  28.959  0.00  0.00    +0.171 C 
ATOM     29  C   LIG    1        8.135 145.184  29.780  0.00  0.00    +0.197 C 
ATOM     36  O   LIG    1        9.110 145.700  30.682  0.00  0.00    -0.346 OA
BRANCH  28  30
ATOM     30  O   LIG    1        6.553 145.787  28.053  0.00  0.00    -0.387 OA
ATOM     31  H   LIG    1        6.440 146.436  27.338  0.00  0.00    +0.210 HD
ENDBRANCH  28  30
BRANCH  27  32
ATOM     32  O   LIG    1        9.141 146.223  27.180  0.00  0.00    -0.386 OA
ATOM     33  H   LIG    1        9.695 146.776  26.602  0.00  0.00    +0.210 HD
ENDBRANCH  27  32
BRANCH  26  34
ATOM     34  O   LIG    1        9.214 148.554  29.989  0.00  0.00    -0.384 OA
ATOM     35  H   LIG    1        9.753 148.572  30.798  0.00  0.00    +0.210 HD
ENDBRANCH  26  34
ENDBRANCH  24  25
ENDBRANCH  23  24
ENDBRANCH  22  23
TORSDOF 13
ENDMDL
MODEL 3
REMARK VINA RESULT:      -6.9     12.019     16.209
REMARK  Name = 9823887
REMARK                            x       y       z     vdW  Elec       q    Type
REMARK                         _______ _______ _______ _____ _____    ______ ____
ROOT
ATOM      1  O   LIG    1       19.079 153.713  30.825  0.00  0.00    -0.341 OA
ATOM      2  C   LIG    1       18.707 153.028  32.019  0.00  0.00    +0.282 C 
ATOM      3  C   LIG    1       17.284 153.406  32.432  0.00  0.00    +0.201 C 
ATOM      4  C   LIG    1       16.295 153.182  31.289  0.00  0.00    +0.179 C 
ATOM      5  C   LIG    1       16.806 153.796  29.986  0.00  0.00    +0.177 C 
ATOM     22  C   LIG    1       18.250 153.367  29.714  0.00  0.00    +0.178 C 
ENDROOT
BRANCH   5   6
ATOM      6  O   LIG    1       15.977 153.371  28.908  0.00  0.00    -0.386 OA
ATOM      7  H   LIG    1       16.031 154.043  28.205  0.00  0.00    +0.210 HD
ENDBRANCH   5   6
BRANCH   4   8
ATOM      8  O   LIG    1       15.049 153.803  31.611  0.00  0.00    -0.386 OA
ATOM      9  H   LIG    1       14.345 153.271  31.202  0.00  0.00    +0.210 HD
ENDBRANCH   4   8
BRANCH   3  10
ATOM     10  O   LIG    1       16.913 152.595  33.547  0.00  0.00    -0.384 OA
ATOM     11  H   LIG    1       16.990 153.135  34.351  0.00  0.00    +0.210 HD
ENDBRANCH   3  10
BRANCH   2  12
ATOM     12  O   LIG    1       19.587 153.396  33.080  0.00  0.00    -0.345 OA
BRANCH  12  13
ATOM     13  C   LIG    1       20.053 154.727  32.926  0.00  0.00    +0.190 C 
BRANCH  13  14
ATOM     14  C   LIG    1       21.547 154.724  32.989  0.00  0.00    +0.001 C 
ATOM     15  C   LIG    1       22.281 155.840  33.117  0.00  0.00    +0.006 C 
BRANCH  15  16
ATOM     16  C   LIG    1       23.751 155.885  33.198  0.00  0.00    -0.025 A 
ATOM     17  C   LIG    1       24.377 155.529  34.383  0.00  0.00    +0.008 A 
ATOM     18  C   LIG    1       25.769 155.571  34.458  0.00  0.00    +0.001 A 
ATOM     19  C   LIG    1       26.517 155.970  33.351  0.00  0.00    +0.000 A 
ATOM     20  C   LIG    1       25.873 156.325  32.166  0.00  0.00    +0.001 A 
ATOM     21  C   LIG    1       24.481 156.283  32.090  0.00  0.00    +0.008 A 
ENDBRANCH  15  16
ENDBRANCH  13  14
ENDBRANCH  12  13
ENDBRANCH   2  12
BRANCH  22  23
ATOM     23  C   LIG    1       18.822 154.059  28.480  0.00  0.00    +0.197 C 
BRANCH  23  24
ATOM     24  O   LIG    1       20.079 154.616  28.818  0.00  0.00    -0.346 OA
BRANCH  24  25
ATOM     25  C   LIG    1       21.015 154.492  27.752  0.00  0.00    +0.281 C 
ATOM     26  C   LIG    1       20.854 155.666  26.775  0.00  0.00    +0.201 C 
ATOM     27  C   LIG    1       21.420 156.972  27.344  0.00  0.00    +0.178 C 
ATOM     28  C   LIG    1       22.830 156.740  27.892  0.00  0.00    +0.171 C 
ATOM     29  C   LIG    1       22.842 155.567  28.864  0.00  0.00    +0.197 C 
ATOM     36  O   LIG    1       22.361 154.384  28.230  0.00  0.00    -0.346 OA
BRANCH  28  30
ATOM     30  O   LIG    1       23.299 157.919  28.531  0.00  0.00    -0.387 OA
ATOM     31  H   LIG    1       22.521 158.445  28.785  0.00  0.00    +0.210 HD
ENDBRANCH  28  30
BRANCH  27  32
ATOM     32  O   LIG    1       20.577 157.439  28.396  0.00  0.00    -0.386 OA
ATOM     33  H   LIG    1       21.014 158.208  28.801  0.00  0.00    +0.210 HD
ENDBRANCH  27  32
BRANCH  26  34
ATOM     34  O   LIG    1       21.545 155.337  25.572  0.00  0.00    -0.384 OA
ATOM     35  H   LIG    1       21.252 155.944  24.873  0.00  0.00    +0.210 HD
ENDBRANCH  26  34
ENDBRANCH  24  25
ENDBRANCH  23  24
ENDBRANCH  22  23
TORSDOF 13
ENDMDL
MODEL 4
REMARK VINA RESULT:      -6.9     12.280     15.210
REMARK  Name = 9823887
REMARK                            x       y       z     vdW  Elec       q    Type
REMARK                         _______ _______ _______ _____ _____    ______ ____
ROOT
ATOM      1  O   LIG    1       18.049 154.315  30.648  0.00  0.00    -0.341 OA
ATOM      2  C   LIG    1       18.492 153.174  31.379  0.00  0.00    +0.282 C 
ATOM      3  C   LIG    1       17.774 153.089  32.727  0.00  0.00    +0.201 C 
ATOM      4  C   LIG    1       16.256 153.127  32.552  0.00  0.00    +0.179 C 
ATOM      5  C   LIG    1       15.834 154.271  31.631  0.00  0.00    +0.177 C 
ATOM     22  C   LIG    1       16.656 154.261  30.339  0.00  0.00    +0.178 C 
ENDROOT
BRANCH   5   6
ATOM      6  O   LIG    1       14.451 154.134  31.311  0.00  0.00    -0.386 OA
ATOM      7  H   LIG    1       14.229 154.811  30.648  0.00  0.00    +0.210 HD
ENDBRANCH   5   6
BRANCH   4   8
ATOM      8  O   LIG    1       15.636 153.331  33.822  0.00  0.00    -0.386 OA
ATOM      9  H   LIG    1       16.308 153.164  34.505  0.00  0.00    +0.210 HD
ENDBRANCH   4   8
BRANCH   3  10
ATOM     10  O   LIG    1       18.148 151.864  33.357  0.00  0.00    -0.384 OA
ATOM     11  H   LIG    1       17.521 151.177  33.075  0.00  0.00    +0.210 HD
ENDBRANCH   3  10
BRANCH   2  12
ATOM     12  O   LIG    1       19.892 153.276  31.632  0.00  0.00    -0.345 OA
BRANCH  12  13
ATOM     13  C   LIG    1       20.206 154.474  32.324  0.00  0.00    +0.190 C 
BRANCH  13  14
ATOM     14  C   LIG    1       21.689 154.559  32.493  0.00  0.00    +0.001 C 
ATOM     15  C   LIG    1       22.319 155.659  32.932  0.00  0.00    +0.006 C 
BRANCH  15  16
ATOM     16  C   LIG    1       23.774 155.784  33.127  0.00  0.00    -0.025 A 
ATOM     17  C   LIG    1       24.571 156.174  32.063  0.00  0.00    +0.008 A 
ATOM     18  C   LIG    1       25.948 156.292  32.249  0.00  0.00    +0.001 A 
ATOM     19  C   LIG    1       26.511 156.017  33.496  0.00  0.00    +0.000 A 
ATOM     20  C   LIG    1       25.696 155.625  34.557  0.00  0.00    +0.001 A 
ATOM     21  C   LIG    1       24.318 155.507  34.371  0.00  0.00    +0.008 A 
ENDBRANCH  15  16
ENDBRANCH  13  14
ENDBRANCH  12  13
ENDBRANCH   2  12
BRANCH  22  23
ATOM     23  C   LIG    1       16.333 155.462  29.455  0.00  0.00    +0.197 C 
BRANCH  23  24
ATOM     24  O   LIG    1       17.444 155.713  28.613  0.00  0.00    -0.346 OA
BRANCH  24  25
ATOM     25  C   LIG    1       17.044 156.252  27.358  0.00  0.00    +0.281 C 
ATOM     26  C   LIG    1       18.283 156.665  26.548  0.00  0.00    +0.201 C 
ATOM     27  C   LIG    1       19.031 155.454  25.981  0.00  0.00    +0.178 C 
ATOM     28  C   LIG    1       18.052 154.512  25.278  0.00  0.00    +0.171 C 
ATOM     29  C   LIG    1       16.889 154.163  26.198  0.00  0.00    +0.197 C 
ATOM     36  O   LIG    1       16.214 155.345  26.624  0.00  0.00    -0.346 OA
BRANCH  28  30
ATOM     30  O   LIG    1       18.728 153.332  24.866  0.00  0.00    -0.387 OA
ATOM     31  H   LIG    1       18.972 152.838  25.668  0.00  0.00    +0.210 HD
ENDBRANCH  28  30
BRANCH  27  32
ATOM     32  O   LIG    1       19.680 154.754  27.041  0.00  0.00    -0.386 OA
ATOM     33  H   LIG    1       20.614 154.644  26.790  0.00  0.00    +0.210 HD
ENDBRANCH  27  32
BRANCH  26  34
ATOM     34  O   LIG    1       17.850 157.498  25.475  0.00  0.00    -0.384 OA
ATOM     35  H   LIG    1       18.584 157.595  24.846  0.00  0.00    +0.210 HD
ENDBRANCH  26  34
ENDBRANCH  24  25
ENDBRANCH  23  24
ENDBRANCH  22  23
TORSDOF 13
ENDMDL
MODEL 5
REMARK VINA RESULT:      -6.7     20.249     22.236
REMARK  Name = 9823887
REMARK                            x       y       z     vdW  Elec       q    Type
REMARK                         _______ _______ _______ _____ _____    ______ ____
ROOT
ATOM      1  O   LIG    1       23.134 140.548   9.365  0.00  0.00    -0.341 OA
ATOM      2  C   LIG    1       24.058 141.200  10.232  0.00  0.00    +0.282 C 
ATOM      3  C   LIG    1       24.919 142.193   9.448  0.00  0.00    +0.201 C 
ATOM      4  C   LIG    1       24.055 143.174   8.656  0.00  0.00    +0.179 C 
ATOM      5  C   LIG    1       22.972 142.444   7.863  0.00  0.00    +0.177 C 
ATOM     22  C   LIG    1       22.216 141.457   8.757  0.00  0.00    +0.178 C 
ENDROOT
BRANCH   5   6
ATOM      6  O   LIG    1       22.055 143.395   7.329  0.00  0.00    -0.386 OA
ATOM      7  H   LIG    1       21.302 142.907   6.953  0.00  0.00    +0.210 HD
ENDBRANCH   5   6
BRANCH   4   8
ATOM      8  O   LIG    1       24.875 143.889   7.730  0.00  0.00    -0.386 OA
ATOM      9  H   LIG    1       25.417 143.235   7.257  0.00  0.00    +0.210 HD
ENDBRANCH   4   8
BRANCH   3  10
ATOM     10  O   LIG    1       25.727 142.914  10.377  0.00  0.00    -0.384 OA
ATOM     11  H   LIG    1       25.203 143.659  10.717  0.00  0.00    +0.210 HD
ENDBRANCH   3  10
BRANCH   2  12
ATOM     12  O   LIG    1       24.927 140.237  10.825  0.00  0.00    -0.345 OA
BRANCH  12  13
ATOM     13  C   LIG    1       24.722 140.149  12.226  0.00  0.00    +0.190 C 
BRANCH  13  14
ATOM     14  C   LIG    1       26.026 140.380  12.919  0.00  0.00    +0.001 C 
ATOM     15  C   LIG    1       27.200 140.460  12.273  0.00  0.00    +0.006 C 
BRANCH  15  16
ATOM     16  C   LIG    1       28.505 140.700  12.912  0.00  0.00    -0.025 A 
ATOM     17  C   LIG    1       29.301 139.620  13.258  0.00  0.00    +0.008 A 
ATOM     18  C   LIG    1       30.537 139.848  13.862  0.00  0.00    +0.001 A 
ATOM     19  C   LIG    1       30.961 141.153  14.113  0.00  0.00    +0.000 A 
ATOM     20  C   LIG    1       30.150 142.230  13.760  0.00  0.00    +0.001 A 
ATOM     21  C   LIG    1       28.913 142.002  13.155  0.00  0.00    +0.008 A 
ENDBRANCH  15  16
ENDBRANCH  13  14
ENDBRANCH  12  13
ENDBRANCH   2  12
BRANCH  22  23
ATOM     23  C   LIG    1       21.208 140.633   7.961  0.00  0.00    +0.197 C 
BRANCH  23  24
ATOM     24  O   LIG    1       20.456 139.845   8.867  0.00  0.00    -0.346 OA
BRANCH  24  25
ATOM     25  C   LIG    1       20.214 138.539   8.355  0.00  0.00    +0.281 C 
ATOM     26  C   LIG    1       21.439 137.645   8.602  0.00  0.00    +0.201 C 
ATOM     27  C   LIG    1       21.562 137.229  10.072  0.00  0.00    +0.178 C 
ATOM     28  C   LIG    1       20.223 136.692  10.581  0.00  0.00    +0.171 C 
ATOM     29  C   LIG    1       19.103 137.684  10.295  0.00  0.00    +0.197 C 
ATOM     36  O   LIG    1       19.022 137.962   8.899  0.00  0.00    -0.346 OA
BRANCH  28  30
ATOM     30  O   LIG    1       20.307 136.428  11.974  0.00  0.00    -0.387 OA
ATOM     31  H   LIG    1       19.629 135.765  12.190  0.00  0.00    +0.210 HD
ENDBRANCH  28  30
BRANCH  27  32
ATOM     32  O   LIG    1       21.946 138.357  10.856  0.00  0.00    -0.386 OA
ATOM     33  H   LIG    1       22.590 138.869  10.337  0.00  0.00    +0.210 HD
ENDBRANCH  27  32
BRANCH  26  34
ATOM     34  O   LIG    1       21.304 136.480   7.792  0.00  0.00    -0.384 OA
ATOM     35  H   LIG    1       21.523 136.716   6.875  0.00  0.00    +0.210 HD
ENDBRANCH  26  34
ENDBRANCH  24  25
ENDBRANCH  23  24
ENDBRANCH  22  23
TORSDOF 13
ENDMDL
MODEL 6
REMARK VINA RESULT:      -6.7     20.716     23.550
REMARK  Name = 9823887
REMARK                            x       y       z     vdW  Elec       q    Type
REMARK                         _______ _______ _______ _____ _____    ______ ____
ROOT
ATOM      1  O   LIG    1       23.695 140.454   8.415  0.00  0.00    -0.341 OA
ATOM      2  C   LIG    1       23.311 140.133   9.750  0.00  0.00    +0.282 C 
ATOM      3  C   LIG    1       21.819 140.397   9.956  0.00  0.00    +0.201 C 
ATOM      4  C   LIG    1       20.976 139.673   8.907  0.00  0.00    +0.179 C 
ATOM      5  C   LIG    1       21.517 139.915   7.498  0.00  0.00    +0.177 C 
ATOM     22  C   LIG    1       23.024 139.651   7.443  0.00  0.00    +0.178 C 
ENDROOT
BRANCH   5   6
ATOM      6  O   LIG    1       20.852 139.048   6.582  0.00  0.00    -0.386 OA
ATOM      7  H   LIG    1       20.476 139.595   5.871  0.00  0.00    +0.210 HD
ENDBRANCH   5   6
BRANCH   4   8
ATOM      8  O   LIG    1       19.634 140.163   8.954  0.00  0.00    -0.386 OA
ATOM      9  H   LIG    1       19.120 139.549   9.505  0.00  0.00    +0.210 HD
ENDBRANCH   4   8
BRANCH   3  10
ATOM     10  O   LIG    1       21.458 139.933  11.257  0.00  0.00    -0.384 OA
ATOM     11  H   LIG    1       20.772 140.525  11.608  0.00  0.00    +0.210 HD
ENDBRANCH   3  10
BRANCH   2  12
ATOM     12  O   LIG    1       24.034 140.949  10.669  0.00  0.00    -0.345 OA
BRANCH  12  13
ATOM     13  C   LIG    1       24.610 140.172  11.707  0.00  0.00    +0.190 C 
BRANCH  13  14
ATOM     14  C   LIG    1       26.024 140.613  11.910  0.00  0.00    +0.001 C 
ATOM     15  C   LIG    1       26.748 140.293  12.994  0.00  0.00    +0.006 C 
BRANCH  15  16
ATOM     16  C   LIG    1       28.146 140.692  13.231  0.00  0.00    -0.025 A 
ATOM     17  C   LIG    1       29.113 139.714  13.393  0.00  0.00    +0.008 A 
ATOM     18  C   LIG    1       30.437 140.092  13.617  0.00  0.00    +0.001 A 
ATOM     19  C   LIG    1       30.776 141.444  13.676  0.00  0.00    +0.000 A 
ATOM     20  C   LIG    1       29.791 142.418  13.511  0.00  0.00    +0.001 A 
ATOM     21  C   LIG    1       28.467 142.039  13.287  0.00  0.00    +0.008 A 
ENDBRANCH  15  16
ENDBRANCH  13  14
ENDBRANCH  12  13
ENDBRANCH   2  12
BRANCH  22  23
ATOM     23  C   LIG    1       23.608 139.997   6.076  0.00  0.00    +0.197 C 
BRANCH  23  24
ATOM     24  O   LIG    1       22.706 140.859   5.406  0.00  0.00    -0.346 OA
BRANCH  24  25
ATOM     25  C   LIG    1       23.383 141.929   4.755  0.00  0.00    +0.281 C 
ATOM     26  C   LIG    1       22.386 142.749   3.923  0.00  0.00    +0.201 C 
ATOM     27  C   LIG    1       21.488 143.628   4.801  0.00  0.00    +0.178 C 
ATOM     28  C   LIG    1       22.337 144.414   5.801  0.00  0.00    +0.171 C 
ATOM     29  C   LIG    1       23.260 143.480   6.573  0.00  0.00    +0.197 C 
ATOM     36  O   LIG    1       24.100 142.753   5.681  0.00  0.00    -0.346 OA
BRANCH  28  30
ATOM     30  O   LIG    1       21.493 145.128   6.694  0.00  0.00    -0.387 OA
ATOM     31  H   LIG    1       22.038 145.800   7.138  0.00  0.00    +0.210 HD
ENDBRANCH  28  30
BRANCH  27  32
ATOM     32  O   LIG    1       20.564 142.806   5.511  0.00  0.00    -0.386 OA
ATOM     33  H   LIG    1       19.672 143.156   5.343  0.00  0.00    +0.210 HD
ENDBRANCH  27  32
BRANCH  26  34
ATOM     34  O   LIG    1       23.130 143.576   3.032  0.00  0.00    -0.384 OA
ATOM     35  H   LIG    1       23.491 143.019   2.323  0.00  0.00    +0.210 HD
ENDBRANCH  26  34
ENDBRANCH  24  25
ENDBRANCH  23  24
ENDBRANCH  22  23
TORSDOF 13
ENDMDL
MODEL 7
REMARK VINA RESULT:      -6.7     11.454     15.117
REMARK  Name = 9823887
REMARK                            x       y       z     vdW  Elec       q    Type
REMARK                         _______ _______ _______ _____ _____    ______ ____
ROOT
ATOM      1  O   LIG    1       18.771 155.756  29.263  0.00  0.00    -0.341 OA
ATOM      2  C   LIG    1       20.084 155.201  29.305  0.00  0.00    +0.282 C 
ATOM      3  C   LIG    1       20.483 154.667  27.929  0.00  0.00    +0.201 C 
ATOM      4  C   LIG    1       20.327 155.737  26.849  0.00  0.00    +0.179 C 
ATOM      5  C   LIG    1       18.963 156.419  26.939  0.00  0.00    +0.177 C 
ATOM     22  C   LIG    1       18.674 156.869  28.374  0.00  0.00    +0.178 C 
ENDROOT
BRANCH   5   6
ATOM      6  O   LIG    1       18.944 157.553  26.076  0.00  0.00    -0.386 OA
ATOM      7  H   LIG    1       19.785 158.030  26.190  0.00  0.00    +0.210 HD
ENDBRANCH   5   6
BRANCH   4   8
ATOM      8  O   LIG    1       20.433 155.131  25.560  0.00  0.00    -0.386 OA
ATOM      9  H   LIG    1       21.162 154.488  25.600  0.00  0.00    +0.210 HD
ENDBRANCH   4   8
BRANCH   3  10
ATOM     10  O   LIG    1       21.847 154.250  27.990  0.00  0.00    -0.384 OA
ATOM     11  H   LIG    1       22.238 154.617  28.801  0.00  0.00    +0.210 HD
ENDBRANCH   3  10
BRANCH   2  12
ATOM     12  O   LIG    1       20.119 154.114  30.227  0.00  0.00    -0.345 OA
BRANCH  12  13
ATOM     13  C   LIG    1       20.278 154.572  31.560  0.00  0.00    +0.190 C 
BRANCH  13  14
ATOM     14  C   LIG    1       21.737 154.728  31.846  0.00  0.00    +0.001 C 
ATOM     15  C   LIG    1       22.218 155.519  32.817  0.00  0.00    +0.006 C 
BRANCH  15  16
ATOM     16  C   LIG    1       23.644 155.692  33.143  0.00  0.00    -0.025 A 
ATOM     17  C   LIG    1       24.079 155.447  34.436  0.00  0.00    +0.008 A 
ATOM     18  C   LIG    1       25.429 155.611  34.744  0.00  0.00    +0.001 A 
ATOM     19  C   LIG    1       26.326 156.019  33.757  0.00  0.00    +0.000 A 
ATOM     20  C   LIG    1       25.874 156.261  32.461  0.00  0.00    +0.001 A 
ATOM     21  C   LIG    1       24.523 156.097  32.152  0.00  0.00    +0.008 A 
ENDBRANCH  15  16
ENDBRANCH  13  14
ENDBRANCH  12  13
ENDBRANCH   2  12
BRANCH  22  23
ATOM     23  C   LIG    1       17.269 157.449  28.512  0.00  0.00    +0.197 C 
BRANCH  23  24
ATOM     24  O   LIG    1       16.461 156.512  29.201  0.00  0.00    -0.346 OA
BRANCH  24  25
ATOM     25  C   LIG    1       15.446 155.972  28.361  0.00  0.00    +0.281 C 
ATOM     26  C   LIG    1       15.924 154.646  27.749  0.00  0.00    +0.201 C 
ATOM     27  C   LIG    1       15.921 153.505  28.772  0.00  0.00    +0.178 C 
ATOM     28  C   LIG    1       14.581 153.462  29.509  0.00  0.00    +0.171 C 
ATOM     29  C   LIG    1       14.241 154.830  30.085  0.00  0.00    +0.197 C 
ATOM     36  O   LIG    1       14.203 155.814  29.055  0.00  0.00    -0.346 OA
BRANCH  28  30
ATOM     30  O   LIG    1       14.629 152.487  30.541  0.00  0.00    -0.387 OA
ATOM     31  H   LIG    1       14.564 152.955  31.391  0.00  0.00    +0.210 HD
ENDBRANCH  28  30
BRANCH  27  32
ATOM     32  O   LIG    1       16.971 153.707  29.716  0.00  0.00    -0.386 OA
ATOM     33  H   LIG    1       17.301 152.830  29.980  0.00  0.00    +0.210 HD
ENDBRANCH  27  32
BRANCH  26  34
ATOM     34  O   LIG    1       15.050 154.317  26.672  0.00  0.00    -0.384 OA
ATOM     35  H   LIG    1       14.618 155.132  26.367  0.00  0.00    +0.210 HD
ENDBRANCH  26  34
ENDBRANCH  24  25
ENDBRANCH  23  24
ENDBRANCH  22  23
TORSDOF 13
ENDMDL
MODEL 8
REMARK VINA RESULT:      -6.7     26.062     29.920
REMARK  Name = 9823887
REMARK                            x       y       z     vdW  Elec       q    Type
REMARK                         _______ _______ _______ _____ _____    ______ ____
ROOT
ATOM      1  O   LIG    1       13.026 166.780  13.014  0.00  0.00    -0.341 OA
ATOM      2  C   LIG    1       12.931 165.744  13.989  0.00  0.00    +0.282 C 
ATOM      3  C   LIG    1       12.620 164.405  13.319  0.00  0.00    +0.201 C 
ATOM      4  C   LIG    1       13.628 164.088  12.215  0.00  0.00    +0.179 C 
ATOM      5  C   LIG    1       13.821 165.282  11.282  0.00  0.00    +0.177 C 
ATOM     22  C   LIG    1       14.086 166.560  12.082  0.00  0.00    +0.178 C 
ENDROOT
BRANCH   5   6
ATOM      6  O   LIG    1       14.925 165.031  10.415  0.00  0.00    -0.386 OA
ATOM      7  H   LIG    1       15.734 165.023  10.956  0.00  0.00    +0.210 HD
ENDBRANCH   5   6
BRANCH   4   8
ATOM      8  O   LIG    1       13.149 162.991  11.435  0.00  0.00    -0.386 OA
ATOM      9  H   LIG    1       13.011 163.316  10.529  0.00  0.00    +0.210 HD
ENDBRANCH   4   8
BRANCH   3  10
ATOM     10  O   LIG    1       12.671 163.384  14.315  0.00  0.00    -0.384 OA
ATOM     11  H   LIG    1       12.804 162.532  13.867  0.00  0.00    +0.210 HD
ENDBRANCH   3  10
BRANCH   2  12
ATOM     12  O   LIG    1       11.874 166.036  14.901  0.00  0.00    -0.345 OA
BRANCH  12  13
ATOM     13  C   LIG    1       10.604 165.830  14.304  0.00  0.00    +0.190 C 
BRANCH  13  14
ATOM     14  C   LIG    1        9.612 166.738  14.956  0.00  0.00    +0.001 C 
ATOM     15  C   LIG    1        8.307 166.749  14.645  0.00  0.00    +0.006 C 
BRANCH  15  16
ATOM     16  C   LIG    1        7.291 167.614  15.270  0.00  0.00    -0.025 A 
ATOM     17  C   LIG    1        7.301 167.788  16.645  0.00  0.00    +0.008 A 
ATOM     18  C   LIG    1        6.340 168.608  17.235  0.00  0.00    +0.001 A 
ATOM     19  C   LIG    1        5.381 169.242  16.445  0.00  0.00    +0.000 A 
ATOM     20  C   LIG    1        5.384 169.057  15.063  0.00  0.00    +0.001 A 
ATOM     21  C   LIG    1        6.345 168.237  14.472  0.00  0.00    +0.008 A 
ENDBRANCH  15  16
ENDBRANCH  13  14
ENDBRANCH  12  13
ENDBRANCH   2  12
BRANCH  22  23
ATOM     23  C   LIG    1       14.167 167.787  11.178  0.00  0.00    +0.197 C 
BRANCH  23  24
ATOM     24  O   LIG    1       15.348 167.698  10.403  0.00  0.00    -0.346 OA
BRANCH  24  25
ATOM     25  C   LIG    1       15.295 168.546   9.261  0.00  0.00    +0.281 C 
ATOM     26  C   LIG    1       16.660 168.560   8.555  0.00  0.00    +0.201 C 
ATOM     27  C   LIG    1       16.926 167.260   7.788  0.00  0.00    +0.178 C 
ATOM     28  C   LIG    1       15.720 166.910   6.914  0.00  0.00    +0.171 C 
ATOM     29  C   LIG    1       14.440 166.907   7.740  0.00  0.00    +0.197 C 
ATOM     36  O   LIG    1       14.243 168.174   8.364  0.00  0.00    -0.346 OA
BRANCH  28  30
ATOM     30  O   LIG    1       15.919 165.642   6.304  0.00  0.00    -0.387 OA
ATOM     31  H   LIG    1       16.778 165.667   5.848  0.00  0.00    +0.210 HD
ENDBRANCH  28  30
BRANCH  27  32
ATOM     32  O   LIG    1       17.162 166.200   8.712  0.00  0.00    -0.386 OA
ATOM     33  H   LIG    1       16.415 165.581   8.645  0.00  0.00    +0.210 HD
ENDBRANCH  27  32
BRANCH  26  34
ATOM     34  O   LIG    1       16.675 169.657   7.646  0.00  0.00    -0.384 OA
ATOM     35  H   LIG    1       17.599 169.908   7.482  0.00  0.00    +0.210 HD
ENDBRANCH  26  34
ENDBRANCH  24  25
ENDBRANCH  23  24
ENDBRANCH  22  23
TORSDOF 13
ENDMDL
MODEL 9
REMARK VINA RESULT:      -6.7     11.572     15.122
REMARK  Name = 9823887
REMARK                            x       y       z     vdW  Elec       q    Type
REMARK                         _______ _______ _______ _____ _____    ______ ____
ROOT
ATOM      1  O   LIG    1       18.207 154.002  31.685  0.00  0.00    -0.341 OA
ATOM      2  C   LIG    1       18.933 153.089  32.504  0.00  0.00    +0.282 C 
ATOM      3  C   LIG    1       18.046 152.557  33.630  0.00  0.00    +0.201 C 
ATOM      4  C   LIG    1       16.750 151.960  33.083  0.00  0.00    +0.179 C 
ATOM      5  C   LIG    1       16.082 152.906  32.086  0.00  0.00    +0.177 C 
ATOM     22  C   LIG    1       17.089 153.391  31.039  0.00  0.00    +0.178 C 
ENDROOT
BRANCH   5   6
ATOM      6  O   LIG    1       15.014 152.225  31.433  0.00  0.00    -0.386 OA
ATOM      7  H   LIG    1       14.677 152.805  30.727  0.00  0.00    +0.210 HD
ENDBRANCH   5   6
BRANCH   4   8
ATOM      8  O   LIG    1       15.838 151.738  34.160  0.00  0.00    -0.386 OA
ATOM      9  H   LIG    1       16.366 151.557  34.956  0.00  0.00    +0.210 HD
ENDBRANCH   4   8
BRANCH   3  10
ATOM     10  O   LIG    1       18.773 151.550  34.333  0.00  0.00    -0.384 OA
ATOM     11  H   LIG    1       18.223 150.749  34.366  0.00  0.00    +0.210 HD
ENDBRANCH   3  10
BRANCH   2  12
ATOM     12  O   LIG    1       20.047 153.753  33.096  0.00  0.00    -0.345 OA
BRANCH  12  13
ATOM     13  C   LIG    1       20.061 155.133  32.768  0.00  0.00    +0.190 C 
BRANCH  13  14
ATOM     14  C   LIG    1       21.471 155.552  32.504  0.00  0.00    +0.001 C 
ATOM     15  C   LIG    1       22.498 155.231  33.307  0.00  0.00    +0.006 C 
BRANCH  15  16
ATOM     16  C   LIG    1       23.904 155.608  33.080  0.00  0.00    -0.025 A 
ATOM     17  C   LIG    1       24.848 155.330  34.056  0.00  0.00    +0.008 A 
ATOM     18  C   LIG    1       26.178 155.687  33.840  0.00  0.00    +0.001 A 
ATOM     19  C   LIG    1       26.548 156.319  32.653  0.00  0.00    +0.000 A 
ATOM     20  C   LIG    1       25.587 156.593  31.680  0.00  0.00    +0.001 A 
ATOM     21  C   LIG    1       24.256 156.235  31.895  0.00  0.00    +0.008 A 
ENDBRANCH  15  16
ENDBRANCH  13  14
ENDBRANCH  12  13
ENDBRANCH   2  12
BRANCH  22  23
ATOM     23  C   LIG    1       16.475 154.427  30.102  0.00  0.00    +0.197 C 
BRANCH  23  24
ATOM     24  O   LIG    1       16.857 154.116  28.775  0.00  0.00    -0.346 OA
BRANCH  24  25
ATOM     25  C   LIG    1       18.122 154.681  28.444  0.00  0.00    +0.281 C 
ATOM     26  C   LIG    1       18.694 153.988  27.197  0.00  0.00    +0.201 C 
ATOM     27  C   LIG    1       17.975 154.422  25.916  0.00  0.00    +0.178 C 
ATOM     28  C   LIG    1       17.882 155.948  25.855  0.00  0.00    +0.171 C 
ATOM     29  C   LIG    1       17.277 156.501  27.138  0.00  0.00    +0.197 C 
ATOM     36  O   LIG    1       18.047 156.101  28.270  0.00  0.00    -0.346 OA
BRANCH  28  30
ATOM     30  O   LIG    1       17.106 156.340  24.731  0.00  0.00    -0.387 OA
ATOM     31  H   LIG    1       17.256 155.685  24.028  0.00  0.00    +0.210 HD
ENDBRANCH  28  30
BRANCH  27  32
ATOM     32  O   LIG    1       16.660 153.870  25.895  0.00  0.00    -0.386 OA
ATOM     33  H   LIG    1       16.188 154.207  26.676  0.00  0.00    +0.210 HD
ENDBRANCH  27  32
BRANCH  26  34
ATOM     34  O   LIG    1       20.075 154.325  27.101  0.00  0.00    -0.384 OA
ATOM     35  H   LIG    1       20.151 155.194  26.673  0.00  0.00    +0.210 HD
ENDBRANCH  26  34
ENDBRANCH  24  25
ENDBRANCH  23  24
ENDBRANCH  22  23
TORSDOF 13
ENDMDL
