MODEL 1
REMARK VINA RESULT:      -7.6      0.000      0.000
REMARK  Name = 5280343
REMARK                            x       y       z     vdW  Elec       q    Type
REMARK                         _______ _______ _______ _____ _____    ______ ____
ROOT
ATOM      1  O   LIG    1       24.053 156.536  30.255  0.00  0.00    -0.451 OA
ATOM      2  C   LIG    1       22.692 156.356  30.061  0.00  0.00    +0.181 A 
ATOM      3  C   LIG    1       21.851 155.852  30.983  0.00  0.00    +0.208 A 
ATOM      4  C   LIG    1       22.389 155.472  32.311  0.00  0.00    +0.238 A 
ATOM      5  C   LIG    1       23.831 155.678  32.514  0.00  0.00    +0.109 A 
ATOM      6  C   LIG    1       24.435 155.355  33.732  0.00  0.00    +0.135 A 
ATOM      7  C   LIG    1       25.805 155.559  33.897  0.00  0.00    +0.091 A 
ATOM      8  C   LIG    1       26.568 156.083  32.853  0.00  0.00    +0.124 A 
ATOM      9  C   LIG    1       25.961 156.404  31.638  0.00  0.00    +0.092 A 
ATOM     14  O   LIG    1       21.673 155.010  33.190  0.00  0.00    -0.283 OA
ATOM     27  C   LIG    1       24.591 156.202  31.470  0.00  0.00    +0.147 A 
ENDROOT
BRANCH   2  17
ATOM     17  C   LIG    1       22.245 156.753  28.715  0.00  0.00    +0.025 A 
ATOM     18  C   LIG    1       21.802 158.056  28.484  0.00  0.00    +0.015 A 
ATOM     19  C   LIG    1       21.378 158.432  27.209  0.00  0.00    +0.050 A 
ATOM     20  C   LIG    1       21.397 157.507  26.166  0.00  0.00    +0.158 A 
ATOM     21  C   LIG    1       21.840 156.204  26.397  0.00  0.00    +0.159 A 
ATOM     26  C   LIG    1       22.265 155.828  27.671  0.00  0.00    +0.060 A 
BRANCH  21  22
ATOM     22  O   LIG    1       21.865 155.293  25.385  0.00  0.00    -0.503 OA
ATOM     23  H   LIG    1       22.288 155.682  24.603  0.00  0.00    +0.292 HD
ENDBRANCH  21  22
BRANCH  20  24
ATOM     24  O   LIG    1       20.979 157.886  24.926  0.00  0.00    -0.503 OA
ATOM     25  H   LIG    1       20.071 157.577  24.778  0.00  0.00    +0.292 HD
ENDBRANCH  20  24
ENDBRANCH   2  17
BRANCH   8  10
ATOM     10  O   LIG    1       27.904 156.281  33.018  0.00  0.00    -0.507 OA
ATOM     11  H   LIG    1       28.348 156.165  32.160  0.00  0.00    +0.292 HD
ENDBRANCH   8  10
BRANCH   6  12
ATOM     12  O   LIG    1       23.738 154.840  34.784  0.00  0.00    -0.506 OA
ATOM     13  H   LIG    1       23.782 155.437  35.546  0.00  0.00    +0.292 HD
ENDBRANCH   6  12
BRANCH   3  15
ATOM     15  O   LIG    1       20.508 155.654  30.748  0.00  0.00    -0.501 OA
ATOM     16  H   LIG    1       20.378 154.836  30.241  0.00  0.00    +0.292 HD
ENDBRANCH   3  15
TORSDOF 6
ENDMDL
MODEL 2
REMARK VINA RESULT:      -7.2      1.548      7.035
REMARK  Name = 5280343
REMARK                            x       y       z     vdW  Elec       q    Type
REMARK                         _______ _______ _______ _____ _____    ______ ____
ROOT
ATOM      1  O   LIG    1       23.193 156.177  29.212  0.00  0.00    -0.451 OA
ATOM      2  C   LIG    1       23.569 157.053  30.218  0.00  0.00    +0.181 A 
ATOM      3  C   LIG    1       23.365 158.383  30.187  0.00  0.00    +0.208 A 
ATOM      4  C   LIG    1       22.677 158.975  29.014  0.00  0.00    +0.238 A 
ATOM      5  C   LIG    1       22.269 158.037  27.956  0.00  0.00    +0.109 A 
ATOM      6  C   LIG    1       21.611 158.494  26.811  0.00  0.00    +0.135 A 
ATOM      7  C   LIG    1       21.236 157.584  25.823  0.00  0.00    +0.091 A 
ATOM      8  C   LIG    1       21.517 156.225  25.977  0.00  0.00    +0.124 A 
ATOM      9  C   LIG    1       22.174 155.773  27.121  0.00  0.00    +0.092 A 
ATOM     14  O   LIG    1       22.463 160.177  28.929  0.00  0.00    -0.283 OA
ATOM     27  C   LIG    1       22.549 156.681  28.112  0.00  0.00    +0.147 A 
ENDROOT
BRANCH   2  17
ATOM     17  C   LIG    1       24.249 156.383  31.340  0.00  0.00    +0.025 A 
ATOM     18  C   LIG    1       25.641 156.285  31.353  0.00  0.00    +0.015 A 
ATOM     19  C   LIG    1       26.285 155.650  32.415  0.00  0.00    +0.050 A 
ATOM     20  C   LIG    1       25.538 155.114  33.463  0.00  0.00    +0.158 A 
ATOM     21  C   LIG    1       24.147 155.211  33.450  0.00  0.00    +0.159 A 
ATOM     26  C   LIG    1       23.502 155.847  32.388  0.00  0.00    +0.060 A 
BRANCH  21  22
ATOM     22  O   LIG    1       23.408 154.692  34.469  0.00  0.00    -0.503 OA
ATOM     23  H   LIG    1       23.347 155.337  35.193  0.00  0.00    +0.292 HD
ENDBRANCH  21  22
BRANCH  20  24
ATOM     24  O   LIG    1       26.179 154.494  34.494  0.00  0.00    -0.503 OA
ATOM     25  H   LIG    1       26.998 154.969  34.704  0.00  0.00    +0.292 HD
ENDBRANCH  20  24
ENDBRANCH   2  17
BRANCH   8  10
ATOM     10  O   LIG    1       21.150 155.341  25.010  0.00  0.00    -0.507 OA
ATOM     11  H   LIG    1       20.381 155.698  24.531  0.00  0.00    +0.292 HD
ENDBRANCH   8  10
BRANCH   6  12
ATOM     12  O   LIG    1       21.314 159.809  26.610  0.00  0.00    -0.506 OA
ATOM     13  H   LIG    1       22.090 160.287  26.281  0.00  0.00    +0.292 HD
ENDBRANCH   6  12
BRANCH   3  15
ATOM     15  O   LIG    1       23.781 159.232  31.189  0.00  0.00    -0.501 OA
ATOM     16  H   LIG    1       24.749 159.207  31.263  0.00  0.00    +0.292 HD
ENDBRANCH   3  15
TORSDOF 6
ENDMDL
MODEL 3
REMARK VINA RESULT:      -7.0      1.553      7.176
REMARK  Name = 5280343
REMARK                            x       y       z     vdW  Elec       q    Type
REMARK                         _______ _______ _______ _____ _____    ______ ____
ROOT
ATOM      1  O   LIG    1       22.182 158.011  28.551  0.00  0.00    -0.451 OA
ATOM      2  C   LIG    1       22.385 156.652  28.734  0.00  0.00    +0.181 A 
ATOM      3  C   LIG    1       22.202 155.718  27.783  0.00  0.00    +0.208 A 
ATOM      4  C   LIG    1       21.770 156.149  26.431  0.00  0.00    +0.238 A 
ATOM      5  C   LIG    1       21.569 157.593  26.240  0.00  0.00    +0.109 A 
ATOM      6  C   LIG    1       21.166 158.101  25.002  0.00  0.00    +0.135 A 
ATOM      7  C   LIG    1       20.982 159.475  24.849  0.00  0.00    +0.091 A 
ATOM      8  C   LIG    1       21.199 160.337  25.925  0.00  0.00    +0.124 A 
ATOM      9  C   LIG    1       21.601 159.827  27.159  0.00  0.00    +0.092 A 
ATOM     14  O   LIG    1       21.589 155.346  25.525  0.00  0.00    -0.283 OA
ATOM     27  C   LIG    1       21.788 158.453  27.315  0.00  0.00    +0.147 A 
ENDROOT
BRANCH   2  17
ATOM     17  C   LIG    1       22.807 156.313  30.105  0.00  0.00    +0.025 A 
ATOM     18  C   LIG    1       24.107 156.597  30.525  0.00  0.00    +0.015 A 
ATOM     19  C   LIG    1       24.506 156.276  31.822  0.00  0.00    +0.050 A 
ATOM     20  C   LIG    1       23.606 155.672  32.700  0.00  0.00    +0.158 A 
ATOM     21  C   LIG    1       22.307 155.387  32.280  0.00  0.00    +0.159 A 
ATOM     26  C   LIG    1       21.907 155.709  30.983  0.00  0.00    +0.060 A 
BRANCH  21  22
ATOM     22  O   LIG    1       21.419 154.799  33.129  0.00  0.00    -0.503 OA
ATOM     23  H   LIG    1       20.688 155.410  33.316  0.00  0.00    +0.292 HD
ENDBRANCH  21  22
BRANCH  20  24
ATOM     24  O   LIG    1       24.009 155.361  33.964  0.00  0.00    -0.503 OA
ATOM     25  H   LIG    1       23.488 154.615  34.299  0.00  0.00    +0.292 HD
ENDBRANCH  20  24
ENDBRANCH   2  17
BRANCH   8  10
ATOM     10  O   LIG    1       21.017 161.677  25.770  0.00  0.00    -0.507 OA
ATOM     11  H   LIG    1       20.490 162.012  26.517  0.00  0.00    +0.292 HD
ENDBRANCH   8  10
BRANCH   6  12
ATOM     12  O   LIG    1       20.940 157.304  23.920  0.00  0.00    -0.506 OA
ATOM     13  H   LIG    1       21.337 156.430  24.052  0.00  0.00    +0.292 HD
ENDBRANCH   6  12
BRANCH   3  15
ATOM     15  O   LIG    1       22.381 154.370  28.007  0.00  0.00    -0.501 OA
ATOM     16  H   LIG    1       21.991 153.860  27.278  0.00  0.00    +0.292 HD
ENDBRANCH   3  15
TORSDOF 6
ENDMDL
MODEL 4
REMARK VINA RESULT:      -6.9      2.469      2.642
REMARK  Name = 5280343
REMARK                            x       y       z     vdW  Elec       q    Type
REMARK                         _______ _______ _______ _____ _____    ______ ____
ROOT
ATOM      1  O   LIG    1       23.619 156.791  31.120  0.00  0.00    -0.451 OA
ATOM      2  C   LIG    1       22.401 156.397  31.653  0.00  0.00    +0.181 A 
ATOM      3  C   LIG    1       22.261 155.656  32.768  0.00  0.00    +0.208 A 
ATOM      4  C   LIG    1       23.476 155.236  33.506  0.00  0.00    +0.238 A 
ATOM      5  C   LIG    1       24.764 155.669  32.942  0.00  0.00    +0.109 A 
ATOM      6  C   LIG    1       25.967 155.327  33.564  0.00  0.00    +0.135 A 
ATOM      7  C   LIG    1       27.174 155.750  33.007  0.00  0.00    +0.091 A 
ATOM      8  C   LIG    1       27.180 156.509  31.836  0.00  0.00    +0.124 A 
ATOM      9  C   LIG    1       25.977 156.848  31.218  0.00  0.00    +0.092 A 
ATOM     14  O   LIG    1       23.412 154.563  34.527  0.00  0.00    -0.283 OA
ATOM     27  C   LIG    1       24.767 156.428  31.773  0.00  0.00    +0.147 A 
ENDROOT
BRANCH   2  17
ATOM     17  C   LIG    1       21.249 156.852  30.855  0.00  0.00    +0.025 A 
ATOM     18  C   LIG    1       21.141 158.195  30.491  0.00  0.00    +0.015 A 
ATOM     19  C   LIG    1       20.050 158.627  29.736  0.00  0.00    +0.050 A 
ATOM     20  C   LIG    1       19.069 157.717  29.345  0.00  0.00    +0.158 A 
ATOM     21  C   LIG    1       19.176 156.374  29.709  0.00  0.00    +0.159 A 
ATOM     26  C   LIG    1       20.268 155.942  30.464  0.00  0.00    +0.060 A 
BRANCH  21  22
ATOM     22  O   LIG    1       18.225 155.477  29.331  0.00  0.00    -0.503 OA
ATOM     23  H   LIG    1       18.439 155.121  28.454  0.00  0.00    +0.292 HD
ENDBRANCH  21  22
BRANCH  20  24
ATOM     24  O   LIG    1       18.007 158.151  28.610  0.00  0.00    -0.503 OA
ATOM     25  H   LIG    1       17.843 159.090  28.794  0.00  0.00    +0.292 HD
ENDBRANCH  20  24
ENDBRANCH   2  17
BRANCH   8  10
ATOM     10  O   LIG    1       28.360 156.919  31.296  0.00  0.00    -0.507 OA
ATOM     11  H   LIG    1       28.918 157.290  32.002  0.00  0.00    +0.292 HD
ENDBRANCH   8  10
BRANCH   6  12
ATOM     12  O   LIG    1       26.019 154.588  34.707  0.00  0.00    -0.506 OA
ATOM     13  H   LIG    1       26.725 154.910  35.289  0.00  0.00    +0.292 HD
ENDBRANCH   6  12
BRANCH   3  15
ATOM     15  O   LIG    1       21.036 155.253  33.254  0.00  0.00    -0.501 OA
ATOM     16  H   LIG    1       20.762 154.431  32.816  0.00  0.00    +0.292 HD
ENDBRANCH   3  15
TORSDOF 6
ENDMDL
MODEL 5
REMARK VINA RESULT:      -6.8     14.386     18.106
REMARK  Name = 5280343
REMARK                            x       y       z     vdW  Elec       q    Type
REMARK                         _______ _______ _______ _____ _____    ______ ____
ROOT
ATOM      1  O   LIG    1       16.026 163.481  15.826  0.00  0.00    -0.451 OA
ATOM      2  C   LIG    1       14.695 163.804  15.615  0.00  0.00    +0.181 A 
ATOM      3  C   LIG    1       13.819 164.103  16.592  0.00  0.00    +0.208 A 
ATOM      4  C   LIG    1       14.290 164.112  17.998  0.00  0.00    +0.238 A 
ATOM      5  C   LIG    1       15.707 163.781  18.213  0.00  0.00    +0.109 A 
ATOM      6  C   LIG    1       16.250 163.765  19.500  0.00  0.00    +0.135 A 
ATOM      7  C   LIG    1       17.597 163.447  19.675  0.00  0.00    +0.091 A 
ATOM      8  C   LIG    1       18.397 163.147  18.572  0.00  0.00    +0.124 A 
ATOM      9  C   LIG    1       17.851 163.163  17.288  0.00  0.00    +0.092 A 
ATOM     14  O   LIG    1       13.540 164.377  18.928  0.00  0.00    -0.283 OA
ATOM     27  C   LIG    1       16.505 163.483  17.109  0.00  0.00    +0.147 A 
ENDROOT
BRANCH   2  17
ATOM     17  C   LIG    1       14.311 163.766  14.193  0.00  0.00    +0.025 A 
ATOM     18  C   LIG    1       14.658 164.822  13.349  0.00  0.00    +0.015 A 
ATOM     19  C   LIG    1       14.295 164.786  12.002  0.00  0.00    +0.050 A 
ATOM     20  C   LIG    1       13.586 163.696  11.500  0.00  0.00    +0.158 A 
ATOM     21  C   LIG    1       13.238 162.641  12.344  0.00  0.00    +0.159 A 
ATOM     26  C   LIG    1       13.602 162.676  13.690  0.00  0.00    +0.060 A 
BRANCH  21  22
ATOM     22  O   LIG    1       12.546 161.570  11.863  0.00  0.00    -0.503 OA
ATOM     23  H   LIG    1       13.129 161.023  11.312  0.00  0.00    +0.292 HD
ENDBRANCH  21  22
BRANCH  20  24
ATOM     24  O   LIG    1       13.235 163.674  10.183  0.00  0.00    -0.503 OA
ATOM     25  H   LIG    1       12.422 163.155  10.070  0.00  0.00    +0.292 HD
ENDBRANCH  20  24
ENDBRANCH   2  17
BRANCH   8  10
ATOM     10  O   LIG    1       19.710 162.836  18.748  0.00  0.00    -0.507 OA
ATOM     11  H   LIG    1       20.166 162.899  17.891  0.00  0.00    +0.292 HD
ENDBRANCH   8  10
BRANCH   6  12
ATOM     12  O   LIG    1       15.514 164.049  20.611  0.00  0.00    -0.506 OA
ATOM     13  H   LIG    1       15.416 163.260  21.165  0.00  0.00    +0.292 HD
ENDBRANCH   6  12
BRANCH   3  15
ATOM     15  O   LIG    1       12.492 164.388  16.352  0.00  0.00    -0.501 OA
ATOM     16  H   LIG    1       11.991 164.353  17.183  0.00  0.00    +0.292 HD
ENDBRANCH   3  15
TORSDOF 6
ENDMDL
MODEL 6
REMARK VINA RESULT:      -6.7     14.363     16.439
REMARK  Name = 5280343
REMARK                            x       y       z     vdW  Elec       q    Type
REMARK                         _______ _______ _______ _____ _____    ______ ____
ROOT
ATOM      1  O   LIG    1       10.690 146.667  28.533  0.00  0.00    -0.451 OA
ATOM      2  C   LIG    1       11.619 146.138  29.415  0.00  0.00    +0.181 A 
ATOM      3  C   LIG    1       11.489 146.142  30.754  0.00  0.00    +0.208 A 
ATOM      4  C   LIG    1       10.267 146.733  31.352  0.00  0.00    +0.238 A 
ATOM      5  C   LIG    1        9.279 147.280  30.410  0.00  0.00    +0.109 A 
ATOM      6  C   LIG    1        8.093 147.855  30.873  0.00  0.00    +0.135 A 
ATOM      7  C   LIG    1        7.174 148.368  29.958  0.00  0.00    +0.091 A 
ATOM      8  C   LIG    1        7.437 148.307  28.588  0.00  0.00    +0.124 A 
ATOM      9  C   LIG    1        8.623 147.733  28.130  0.00  0.00    +0.092 A 
ATOM     14  O   LIG    1       10.091 146.764  32.563  0.00  0.00    -0.283 OA
ATOM     27  C   LIG    1        9.544 147.218  29.043  0.00  0.00    +0.147 A 
ENDROOT
BRANCH   2  17
ATOM     17  C   LIG    1       12.802 145.578  28.737  0.00  0.00    +0.025 A 
ATOM     18  C   LIG    1       12.943 144.196  28.609  0.00  0.00    +0.015 A 
ATOM     19  C   LIG    1       14.063 143.665  27.968  0.00  0.00    +0.050 A 
ATOM     20  C   LIG    1       15.041 144.517  27.455  0.00  0.00    +0.158 A 
ATOM     21  C   LIG    1       14.901 145.899  27.584  0.00  0.00    +0.159 A 
ATOM     26  C   LIG    1       13.780 146.429  28.224  0.00  0.00    +0.060 A 
BRANCH  21  22
ATOM     22  O   LIG    1       15.849 146.739  27.085  0.00  0.00    -0.503 OA
ATOM     23  H   LIG    1       16.186 146.392  26.243  0.00  0.00    +0.292 HD
ENDBRANCH  21  22
BRANCH  20  24
ATOM     24  O   LIG    1       16.131 143.987  26.833  0.00  0.00    -0.503 OA
ATOM     25  H   LIG    1       15.848 143.458  26.070  0.00  0.00    +0.292 HD
ENDBRANCH  20  24
ENDBRANCH   2  17
BRANCH   8  10
ATOM     10  O   LIG    1        6.538 148.810  27.699  0.00  0.00    -0.507 OA
ATOM     11  H   LIG    1        6.423 149.761  27.869  0.00  0.00    +0.292 HD
ENDBRANCH   8  10
BRANCH   6  12
ATOM     12  O   LIG    1        7.786 147.941  32.198  0.00  0.00    -0.506 OA
ATOM     13  H   LIG    1        8.511 148.357  32.689  0.00  0.00    +0.292 HD
ENDBRANCH   6  12
BRANCH   3  15
ATOM     15  O   LIG    1       12.447 145.637  31.606  0.00  0.00    -0.501 OA
ATOM     16  H   LIG    1       13.116 145.149  31.098  0.00  0.00    +0.292 HD
ENDBRANCH   3  15
TORSDOF 6
ENDMDL
MODEL 7
REMARK VINA RESULT:      -6.7     23.417     26.474
REMARK  Name = 5280343
REMARK                            x       y       z     vdW  Elec       q    Type
REMARK                         _______ _______ _______ _____ _____    ______ ____
ROOT
ATOM      1  O   LIG    1       13.628 164.416   7.663  0.00  0.00    -0.451 OA
ATOM      2  C   LIG    1       14.434 164.632   6.556  0.00  0.00    +0.181 A 
ATOM      3  C   LIG    1       15.484 165.473   6.530  0.00  0.00    +0.208 A 
ATOM      4  C   LIG    1       15.834 166.219   7.762  0.00  0.00    +0.238 A 
ATOM      5  C   LIG    1       14.983 165.975   8.937  0.00  0.00    +0.109 A 
ATOM      6  C   LIG    1       15.232 166.626  10.147  0.00  0.00    +0.135 A 
ATOM      7  C   LIG    1       14.408 166.377  11.245  0.00  0.00    +0.091 A 
ATOM      8  C   LIG    1       13.342 165.483  11.135  0.00  0.00    +0.124 A 
ATOM      9  C   LIG    1       13.096 164.835   9.924  0.00  0.00    +0.092 A 
ATOM     14  O   LIG    1       16.779 166.997   7.800  0.00  0.00    -0.283 OA
ATOM     27  C   LIG    1       13.920 165.081   8.825  0.00  0.00    +0.147 A 
ENDROOT
BRANCH   2  17
ATOM     17  C   LIG    1       14.011 163.856   5.377  0.00  0.00    +0.025 A 
ATOM     18  C   LIG    1       13.049 164.374   4.510  0.00  0.00    +0.015 A 
ATOM     19  C   LIG    1       12.648 163.640   3.393  0.00  0.00    +0.050 A 
ATOM     20  C   LIG    1       13.210 162.388   3.143  0.00  0.00    +0.158 A 
ATOM     21  C   LIG    1       14.172 161.869   4.011  0.00  0.00    +0.159 A 
ATOM     26  C   LIG    1       14.573 162.604   5.127  0.00  0.00    +0.060 A 
BRANCH  21  22
ATOM     22  O   LIG    1       14.728 160.649   3.776  0.00  0.00    -0.503 OA
ATOM     23  H   LIG    1       14.032 159.975   3.725  0.00  0.00    +0.292 HD
ENDBRANCH  21  22
BRANCH  20  24
ATOM     24  O   LIG    1       12.809 161.679   2.051  0.00  0.00    -0.503 OA
ATOM     25  H   LIG    1       13.254 162.020   1.259  0.00  0.00    +0.292 HD
ENDBRANCH  20  24
ENDBRANCH   2  17
BRANCH   8  10
ATOM     10  O   LIG    1       12.540 165.243  12.208  0.00  0.00    -0.507 OA
ATOM     11  H   LIG    1       12.394 164.285  12.285  0.00  0.00    +0.292 HD
ENDBRANCH   8  10
BRANCH   6  12
ATOM     12  O   LIG    1       16.257 167.509  10.310  0.00  0.00    -0.506 OA
ATOM     13  H   LIG    1       16.358 168.062   9.521  0.00  0.00    +0.292 HD
ENDBRANCH   6  12
BRANCH   3  15
ATOM     15  O   LIG    1       16.246 165.691   5.402  0.00  0.00    -0.501 OA
ATOM     16  H   LIG    1       16.262 166.639   5.192  0.00  0.00    +0.292 HD
ENDBRANCH   3  15
TORSDOF 6
ENDMDL
MODEL 8
REMARK VINA RESULT:      -6.7     19.179     23.970
REMARK  Name = 5280343
REMARK                            x       y       z     vdW  Elec       q    Type
REMARK                         _______ _______ _______ _____ _____    ______ ____
ROOT
ATOM      1  O   LIG    1       14.598 166.619  11.537  0.00  0.00    -0.451 OA
ATOM      2  C   LIG    1       14.025 165.356  11.557  0.00  0.00    +0.181 A 
ATOM      3  C   LIG    1       13.656 164.669  10.460  0.00  0.00    +0.208 A 
ATOM      4  C   LIG    1       13.884 165.274   9.126  0.00  0.00    +0.238 A 
ATOM      5  C   LIG    1       14.504 166.608   9.112  0.00  0.00    +0.109 A 
ATOM      6  C   LIG    1       14.764 167.263   7.905  0.00  0.00    +0.135 A 
ATOM      7  C   LIG    1       15.352 168.527   7.921  0.00  0.00    +0.091 A 
ATOM      8  C   LIG    1       15.679 169.135   9.134  0.00  0.00    +0.124 A 
ATOM      9  C   LIG    1       15.418 168.479  10.337  0.00  0.00    +0.092 A 
ATOM     14  O   LIG    1       13.571 164.697   8.093  0.00  0.00    -0.283 OA
ATOM     27  C   LIG    1       14.831 167.213  10.324  0.00  0.00    +0.147 A 
ENDROOT
BRANCH   2  17
ATOM     17  C   LIG    1       13.830 164.834  12.921  0.00  0.00    +0.025 A 
ATOM     18  C   LIG    1       14.839 164.088  13.532  0.00  0.00    +0.015 A 
ATOM     19  C   LIG    1       14.654 163.593  14.823  0.00  0.00    +0.050 A 
ATOM     20  C   LIG    1       13.463 163.844  15.503  0.00  0.00    +0.158 A 
ATOM     21  C   LIG    1       12.454 164.589  14.891  0.00  0.00    +0.159 A 
ATOM     26  C   LIG    1       12.638 165.085  13.600  0.00  0.00    +0.060 A 
BRANCH  21  22
ATOM     22  O   LIG    1       11.287 164.841  15.546  0.00  0.00    -0.503 OA
ATOM     23  H   LIG    1       10.543 164.464  15.049  0.00  0.00    +0.292 HD
ENDBRANCH  21  22
BRANCH  20  24
ATOM     24  O   LIG    1       13.294 163.353  16.763  0.00  0.00    -0.503 OA
ATOM     25  H   LIG    1       12.359 163.417  17.017  0.00  0.00    +0.292 HD
ENDBRANCH  20  24
ENDBRANCH   2  17
BRANCH   8  10
ATOM     10  O   LIG    1       16.252 170.370   9.145  0.00  0.00    -0.507 OA
ATOM     11  H   LIG    1       16.981 170.384   8.501  0.00  0.00    +0.292 HD
ENDBRANCH   8  10
BRANCH   6  12
ATOM     12  O   LIG    1       14.465 166.716   6.693  0.00  0.00    -0.506 OA
ATOM     13  H   LIG    1       15.112 166.034   6.459  0.00  0.00    +0.292 HD
ENDBRANCH   6  12
BRANCH   3  15
ATOM     15  O   LIG    1       13.058 163.428  10.515  0.00  0.00    -0.501 OA
ATOM     16  H   LIG    1       12.562 163.265   9.697  0.00  0.00    +0.292 HD
ENDBRANCH   3  15
TORSDOF 6
ENDMDL
MODEL 9
REMARK VINA RESULT:      -6.5      9.818     11.907
REMARK  Name = 5280343
REMARK                            x       y       z     vdW  Elec       q    Type
REMARK                         _______ _______ _______ _____ _____    ______ ____
ROOT
ATOM      1  O   LIG    1       21.393 164.700  21.595  0.00  0.00    -0.451 OA
ATOM      2  C   LIG    1       20.796 163.449  21.613  0.00  0.00    +0.181 A 
ATOM      3  C   LIG    1       21.211 162.417  22.371  0.00  0.00    +0.208 A 
ATOM      4  C   LIG    1       22.374 162.612  23.270  0.00  0.00    +0.238 A 
ATOM      5  C   LIG    1       22.994 163.945  23.256  0.00  0.00    +0.109 A 
ATOM      6  C   LIG    1       24.094 164.231  24.069  0.00  0.00    +0.135 A 
ATOM      7  C   LIG    1       24.664 165.503  24.034  0.00  0.00    +0.091 A 
ATOM      8  C   LIG    1       24.139 166.485  23.192  0.00  0.00    +0.124 A 
ATOM      9  C   LIG    1       23.041 166.196  22.381  0.00  0.00    +0.092 A 
ATOM     14  O   LIG    1       22.796 161.711  23.984  0.00  0.00    -0.283 OA
ATOM     27  C   LIG    1       22.468 164.924  22.415  0.00  0.00    +0.147 A 
ENDROOT
BRANCH   2  17
ATOM     17  C   LIG    1       19.654 163.343  20.688  0.00  0.00    +0.025 A 
ATOM     18  C   LIG    1       18.354 163.513  21.164  0.00  0.00    +0.015 A 
ATOM     19  C   LIG    1       17.272 163.412  20.289  0.00  0.00    +0.050 A 
ATOM     20  C   LIG    1       17.491 163.142  18.938  0.00  0.00    +0.158 A 
ATOM     21  C   LIG    1       18.791 162.971  18.462  0.00  0.00    +0.159 A 
ATOM     26  C   LIG    1       19.873 163.073  19.338  0.00  0.00    +0.060 A 
BRANCH  21  22
ATOM     22  O   LIG    1       19.017 162.708  17.145  0.00  0.00    -0.503 OA
ATOM     23  H   LIG    1       19.218 161.766  17.028  0.00  0.00    +0.292 HD
ENDBRANCH  21  22
BRANCH  20  24
ATOM     24  O   LIG    1       16.427 163.044  18.093  0.00  0.00    -0.503 OA
ATOM     25  H   LIG    1       15.609 162.944  18.606  0.00  0.00    +0.292 HD
ENDBRANCH  20  24
ENDBRANCH   2  17
BRANCH   8  10
ATOM     10  O   LIG    1       24.698 167.725  23.161  0.00  0.00    -0.507 OA
ATOM     11  H   LIG    1       25.167 167.881  24.000  0.00  0.00    +0.292 HD
ENDBRANCH   8  10
BRANCH   6  12
ATOM     12  O   LIG    1       24.646 163.310  24.908  0.00  0.00    -0.506 OA
ATOM     13  H   LIG    1       24.004 163.035  25.581  0.00  0.00    +0.292 HD
ENDBRANCH   6  12
BRANCH   3  15
ATOM     15  O   LIG    1       20.615 161.175  22.342  0.00  0.00    -0.501 OA
ATOM     16  H   LIG    1       19.914 161.161  21.670  0.00  0.00    +0.292 HD
ENDBRANCH   3  15
TORSDOF 6
ENDMDL
