MODEL 1
REMARK VINA RESULT:      -8.1      0.000      0.000
REMARK  Name = 9823887
REMARK                            x       y       z     vdW  Elec       q    Type
REMARK                         _______ _______ _______ _____ _____    ______ ____
ROOT
ATOM      1  O   LIG    1       21.385 158.588  26.983  0.00  0.00    -0.341 OA
ATOM      2  C   LIG    1       22.244 157.525  27.388  0.00  0.00    +0.282 C 
ATOM      3  C   LIG    1       21.818 156.212  26.731  0.00  0.00    +0.201 C 
ATOM      4  C   LIG    1       21.727 156.353  25.212  0.00  0.00    +0.179 C 
ATOM      5  C   LIG    1       20.930 157.596  24.818  0.00  0.00    +0.177 C 
ATOM     22  C   LIG    1       21.434 158.827  25.575  0.00  0.00    +0.178 C 
ENDROOT
BRANCH   5   6
ATOM      6  O   LIG    1       21.062 157.817  23.416  0.00  0.00    -0.386 OA
ATOM      7  H   LIG    1       21.281 156.966  22.998  0.00  0.00    +0.210 HD
ENDBRANCH   5   6
BRANCH   4   8
ATOM      8  O   LIG    1       21.063 155.211  24.667  0.00  0.00    -0.386 OA
ATOM      9  H   LIG    1       20.119 155.432  24.594  0.00  0.00    +0.210 HD
ENDBRANCH   4   8
BRANCH   3  10
ATOM     10  O   LIG    1       22.786 155.214  27.057  0.00  0.00    -0.384 OA
ATOM     11  H   LIG    1       22.464 154.361  26.720  0.00  0.00    +0.210 HD
ENDBRANCH   3  10
BRANCH   2  12
ATOM     12  O   LIG    1       22.168 157.356  28.802  0.00  0.00    -0.345 OA
BRANCH  12  13
ATOM     13  C   LIG    1       22.691 158.483  29.486  0.00  0.00    +0.190 C 
BRANCH  13  14
ATOM     14  C   LIG    1       23.595 158.007  30.578  0.00  0.00    +0.001 C 
ATOM     15  C   LIG    1       23.383 156.876  31.269  0.00  0.00    +0.006 C 
BRANCH  15  16
ATOM     16  C   LIG    1       24.252 156.361  32.341  0.00  0.00    -0.025 A 
ATOM     17  C   LIG    1       25.628 156.449  32.202  0.00  0.00    +0.008 A 
ATOM     18  C   LIG    1       26.450 155.961  33.217  0.00  0.00    +0.001 A 
ATOM     19  C   LIG    1       25.887 155.390  34.358  0.00  0.00    +0.000 A 
ATOM     20  C   LIG    1       24.501 155.308  34.484  0.00  0.00    +0.001 A 
ATOM     21  C   LIG    1       23.678 155.796  33.469  0.00  0.00    +0.008 A 
ENDBRANCH  15  16
ENDBRANCH  13  14
ENDBRANCH  12  13
ENDBRANCH   2  12
BRANCH  22  23
ATOM     23  C   LIG    1       20.579 160.057  25.287  0.00  0.00    +0.197 C 
BRANCH  23  24
ATOM     24  O   LIG    1       21.427 161.104  24.851  0.00  0.00    -0.346 OA
BRANCH  24  25
ATOM     25  C   LIG    1       21.605 162.093  25.859  0.00  0.00    +0.281 C 
ATOM     26  C   LIG    1       22.985 161.929  26.515  0.00  0.00    +0.201 C 
ATOM     27  C   LIG    1       24.118 162.412  25.604  0.00  0.00    +0.178 C 
ATOM     28  C   LIG    1       23.796 163.803  25.055  0.00  0.00    +0.171 C 
ATOM     29  C   LIG    1       22.415 163.819  24.411  0.00  0.00    +0.197 C 
ATOM     36  O   LIG    1       21.419 163.419  25.349  0.00  0.00    -0.346 OA
BRANCH  28  30
ATOM     30  O   LIG    1       24.786 164.191  24.113  0.00  0.00    -0.387 OA
ATOM     31  H   LIG    1       25.587 164.430  24.610  0.00  0.00    +0.210 HD
ENDBRANCH  28  30
BRANCH  27  32
ATOM     32  O   LIG    1       24.278 161.502  24.517  0.00  0.00    -0.386 OA
ATOM     33  H   LIG    1       23.803 161.872  23.753  0.00  0.00    +0.210 HD
ENDBRANCH  27  32
BRANCH  26  34
ATOM     34  O   LIG    1       22.992 162.689  27.721  0.00  0.00    -0.384 OA
ATOM     35  H   LIG    1       22.994 162.074  28.473  0.00  0.00    +0.210 HD
ENDBRANCH  26  34
ENDBRANCH  24  25
ENDBRANCH  23  24
ENDBRANCH  22  23
TORSDOF 13
ENDMDL
MODEL 2
REMARK VINA RESULT:      -7.9     16.565     19.823
REMARK  Name = 9823887
REMARK                            x       y       z     vdW  Elec       q    Type
REMARK                         _______ _______ _______ _____ _____    ______ ____
ROOT
ATOM      1  O   LIG    1       13.055 143.557  28.463  0.00  0.00    -0.341 OA
ATOM      2  C   LIG    1       14.289 143.278  27.806  0.00  0.00    +0.282 C 
ATOM      3  C   LIG    1       14.886 144.558  27.221  0.00  0.00    +0.201 C 
ATOM      4  C   LIG    1       15.014 145.649  28.283  0.00  0.00    +0.179 C 
ATOM      5  C   LIG    1       13.717 145.808  29.073  0.00  0.00    +0.177 C 
ATOM     22  C   LIG    1       13.211 144.450  29.567  0.00  0.00    +0.178 C 
ENDROOT
BRANCH   5   6
ATOM      6  O   LIG    1       13.947 146.661  30.192  0.00  0.00    -0.386 OA
ATOM      7  H   LIG    1       14.810 147.093  30.067  0.00  0.00    +0.210 HD
ENDBRANCH   5   6
BRANCH   4   8
ATOM      8  O   LIG    1       15.302 146.897  27.650  0.00  0.00    -0.386 OA
ATOM      9  H   LIG    1       15.249 146.756  26.689  0.00  0.00    +0.210 HD
ENDBRANCH   4   8
BRANCH   3  10
ATOM     10  O   LIG    1       16.178 144.250  26.697  0.00  0.00    -0.384 OA
ATOM     11  H   LIG    1       16.797 144.935  27.001  0.00  0.00    +0.210 HD
ENDBRANCH   3  10
BRANCH   2  12
ATOM     12  O   LIG    1       14.069 142.363  26.734  0.00  0.00    -0.345 OA
BRANCH  12  13
ATOM     13  C   LIG    1       13.058 141.422  27.058  0.00  0.00    +0.190 C 
BRANCH  13  14
ATOM     14  C   LIG    1       13.700 140.097  27.320  0.00  0.00    +0.001 C 
ATOM     15  C   LIG    1       14.058 139.246  26.346  0.00  0.00    +0.006 C 
BRANCH  15  16
ATOM     16  C   LIG    1       14.705 137.940  26.556  0.00  0.00    -0.025 A 
ATOM     17  C   LIG    1       14.815 137.058  25.492  0.00  0.00    +0.008 A 
ATOM     18  C   LIG    1       15.428 135.821  25.691  0.00  0.00    +0.001 A 
ATOM     19  C   LIG    1       15.921 135.481  26.951  0.00  0.00    +0.000 A 
ATOM     20  C   LIG    1       15.803 136.378  28.011  0.00  0.00    +0.001 A 
ATOM     21  C   LIG    1       15.191 137.616  27.812  0.00  0.00    +0.008 A 
ENDBRANCH  15  16
ENDBRANCH  13  14
ENDBRANCH  12  13
ENDBRANCH   2  12
BRANCH  22  23
ATOM     23  C   LIG    1       11.857 144.569  30.259  0.00  0.00    +0.197 C 
BRANCH  23  24
ATOM     24  O   LIG    1       10.925 145.106  29.338  0.00  0.00    -0.346 OA
BRANCH  24  25
ATOM     25  C   LIG    1       10.144 146.143  29.920  0.00  0.00    +0.281 C 
ATOM     26  C   LIG    1        9.731 147.155  28.841  0.00  0.00    +0.201 C 
ATOM     27  C   LIG    1        8.629 146.608  27.928  0.00  0.00    +0.178 C 
ATOM     28  C   LIG    1        7.494 146.018  28.767  0.00  0.00    +0.171 C 
ATOM     29  C   LIG    1        8.037 145.015  29.776  0.00  0.00    +0.197 C 
ATOM     36  O   LIG    1        9.007 145.628  30.623  0.00  0.00    -0.346 OA
BRANCH  28  30
ATOM     30  O   LIG    1        6.538 145.399  27.918  0.00  0.00    -0.387 OA
ATOM     31  H   LIG    1        5.816 146.036  27.775  0.00  0.00    +0.210 HD
ENDBRANCH  28  30
BRANCH  27  32
ATOM     32  O   LIG    1        9.169 145.591  27.085  0.00  0.00    -0.386 OA
ATOM     33  H   LIG    1       10.125 145.543  27.260  0.00  0.00    +0.210 HD
ENDBRANCH  27  32
BRANCH  26  34
ATOM     34  O   LIG    1        9.260 148.330  29.497  0.00  0.00    -0.384 OA
ATOM     35  H   LIG    1        8.789 148.878  28.847  0.00  0.00    +0.210 HD
ENDBRANCH  26  34
ENDBRANCH  24  25
ENDBRANCH  23  24
ENDBRANCH  22  23
TORSDOF 13
ENDMDL
MODEL 3
REMARK VINA RESULT:      -7.6     16.317     20.109
REMARK  Name = 9823887
REMARK                            x       y       z     vdW  Elec       q    Type
REMARK                         _______ _______ _______ _____ _____    ______ ____
ROOT
ATOM      1  O   LIG    1       13.086 143.574  28.385  0.00  0.00    -0.341 OA
ATOM      2  C   LIG    1       14.330 143.307  27.742  0.00  0.00    +0.282 C 
ATOM      3  C   LIG    1       14.933 144.597  27.186  0.00  0.00    +0.201 C 
ATOM      4  C   LIG    1       15.044 145.671  28.267  0.00  0.00    +0.179 C 
ATOM      5  C   LIG    1       13.734 145.816  29.041  0.00  0.00    +0.177 C 
ATOM     22  C   LIG    1       13.224 144.449  29.505  0.00  0.00    +0.178 C 
ENDROOT
BRANCH   5   6
ATOM      6  O   LIG    1       13.946 146.651  30.176  0.00  0.00    -0.386 OA
ATOM      7  H   LIG    1       13.109 146.705  30.669  0.00  0.00    +0.210 HD
ENDBRANCH   5   6
BRANCH   4   8
ATOM      8  O   LIG    1       15.339 146.930  27.659  0.00  0.00    -0.386 OA
ATOM      9  H   LIG    1       14.934 147.621  28.210  0.00  0.00    +0.210 HD
ENDBRANCH   4   8
BRANCH   3  10
ATOM     10  O   LIG    1       16.233 144.299  26.677  0.00  0.00    -0.384 OA
ATOM     11  H   LIG    1       16.205 143.413  26.279  0.00  0.00    +0.210 HD
ENDBRANCH   3  10
BRANCH   2  12
ATOM     12  O   LIG    1       14.126 142.410  26.652  0.00  0.00    -0.345 OA
BRANCH  12  13
ATOM     13  C   LIG    1       13.605 141.167  27.096  0.00  0.00    +0.190 C 
BRANCH  13  14
ATOM     14  C   LIG    1       12.644 140.654  26.072  0.00  0.00    +0.001 C 
ATOM     15  C   LIG    1       12.770 140.895  24.757  0.00  0.00    +0.006 C 
BRANCH  15  16
ATOM     16  C   LIG    1       11.858 140.399  23.712  0.00  0.00    -0.025 A 
ATOM     17  C   LIG    1       12.004 139.103  23.242  0.00  0.00    +0.008 A 
ATOM     18  C   LIG    1       11.140 138.635  22.253  0.00  0.00    +0.001 A 
ATOM     19  C   LIG    1       10.143 139.467  21.745  0.00  0.00    +0.000 A 
ATOM     20  C   LIG    1       10.009 140.769  22.227  0.00  0.00    +0.001 A 
ATOM     21  C   LIG    1       10.873 141.238  23.217  0.00  0.00    +0.008 A 
ENDBRANCH  15  16
ENDBRANCH  13  14
ENDBRANCH  12  13
ENDBRANCH   2  12
BRANCH  22  23
ATOM     23  C   LIG    1       11.859 144.555  30.179  0.00  0.00    +0.197 C 
BRANCH  23  24
ATOM     24  O   LIG    1       10.943 145.116  29.256  0.00  0.00    -0.346 OA
BRANCH  24  25
ATOM     25  C   LIG    1       10.180 146.165  29.841  0.00  0.00    +0.281 C 
ATOM     26  C   LIG    1        9.754 147.169  28.758  0.00  0.00    +0.201 C 
ATOM     27  C   LIG    1        8.632 146.619  27.871  0.00  0.00    +0.178 C 
ATOM     28  C   LIG    1        7.508 146.047  28.737  0.00  0.00    +0.171 C 
ATOM     29  C   LIG    1        8.063 145.051  29.747  0.00  0.00    +0.197 C 
ATOM     36  O   LIG    1        9.052 145.667  30.569  0.00  0.00    -0.346 OA
BRANCH  28  30
ATOM     30  O   LIG    1        6.532 145.426  27.913  0.00  0.00    -0.387 OA
ATOM     31  H   LIG    1        6.446 144.503  28.205  0.00  0.00    +0.210 HD
ENDBRANCH  28  30
BRANCH  27  32
ATOM     32  O   LIG    1        9.149 145.589  27.030  0.00  0.00    -0.386 OA
ATOM     33  H   LIG    1        8.461 144.908  26.944  0.00  0.00    +0.210 HD
ENDBRANCH  27  32
BRANCH  26  34
ATOM     34  O   LIG    1        9.303 148.355  29.409  0.00  0.00    -0.384 OA
ATOM     35  H   LIG    1        8.344 148.432  29.278  0.00  0.00    +0.210 HD
ENDBRANCH  26  34
ENDBRANCH  24  25
ENDBRANCH  23  24
ENDBRANCH  22  23
TORSDOF 13
ENDMDL
MODEL 4
REMARK VINA RESULT:      -7.2     13.403     18.189
REMARK  Name = 9823887
REMARK                            x       y       z     vdW  Elec       q    Type
REMARK                         _______ _______ _______ _____ _____    ______ ____
ROOT
ATOM      1  O   LIG    1       12.847 164.234  16.251  0.00  0.00    -0.341 OA
ATOM      2  C   LIG    1       12.186 164.317  14.990  0.00  0.00    +0.282 C 
ATOM      3  C   LIG    1       13.101 164.958  13.947  0.00  0.00    +0.201 C 
ATOM      4  C   LIG    1       14.444 164.233  13.864  0.00  0.00    +0.179 C 
ATOM      5  C   LIG    1       15.046 164.022  15.252  0.00  0.00    +0.177 C 
ATOM     22  C   LIG    1       14.015 163.412  16.204  0.00  0.00    +0.178 C 
ENDROOT
BRANCH   5   6
ATOM      6  O   LIG    1       16.170 163.151  15.152  0.00  0.00    -0.386 OA
ATOM      7  H   LIG    1       16.857 163.606  14.635  0.00  0.00    +0.210 HD
ENDBRANCH   5   6
BRANCH   4   8
ATOM      8  O   LIG    1       15.361 165.018  13.099  0.00  0.00    -0.386 OA
ATOM      9  H   LIG    1       14.842 165.678  12.609  0.00  0.00    +0.210 HD
ENDBRANCH   4   8
BRANCH   3  10
ATOM     10  O   LIG    1       12.448 164.893  12.679  0.00  0.00    -0.384 OA
ATOM     11  H   LIG    1       12.538 165.759  12.249  0.00  0.00    +0.210 HD
ENDBRANCH   3  10
BRANCH   2  12
ATOM     12  O   LIG    1       11.019 165.127  15.111  0.00  0.00    -0.345 OA
BRANCH  12  13
ATOM     13  C   LIG    1       11.343 166.440  15.540  0.00  0.00    +0.190 C 
BRANCH  13  14
ATOM     14  C   LIG    1       10.084 167.240  15.638  0.00  0.00    +0.001 C 
ATOM     15  C   LIG    1        8.914 166.839  15.117  0.00  0.00    +0.006 C 
BRANCH  15  16
ATOM     16  C   LIG    1        7.647 167.586  15.202  0.00  0.00    -0.025 A 
ATOM     17  C   LIG    1        7.068 168.075  14.042  0.00  0.00    +0.008 A 
ATOM     18  C   LIG    1        5.868 168.782  14.124  0.00  0.00    +0.001 A 
ATOM     19  C   LIG    1        5.263 168.990  15.363  0.00  0.00    +0.000 A 
ATOM     20  C   LIG    1        5.858 168.492  16.522  0.00  0.00    +0.001 A 
ATOM     21  C   LIG    1        7.058 167.785  16.441  0.00  0.00    +0.008 A 
ENDBRANCH  15  16
ENDBRANCH  13  14
ENDBRANCH  12  13
ENDBRANCH   2  12
BRANCH  22  23
ATOM     23  C   LIG    1       14.556 163.299  17.627  0.00  0.00    +0.197 C 
BRANCH  23  24
ATOM     24  O   LIG    1       15.641 164.197  17.768  0.00  0.00    -0.346 OA
BRANCH  24  25
ATOM     25  C   LIG    1       16.510 163.813  18.829  0.00  0.00    +0.281 C 
ATOM     26  C   LIG    1       17.799 163.206  18.254  0.00  0.00    +0.201 C 
ATOM     27  C   LIG    1       18.723 164.274  17.659  0.00  0.00    +0.178 C 
ATOM     28  C   LIG    1       18.905 165.425  18.649  0.00  0.00    +0.171 C 
ATOM     29  C   LIG    1       17.553 165.948  19.118  0.00  0.00    +0.197 C 
ATOM     36  O   LIG    1       16.789 164.902  19.715  0.00  0.00    -0.346 OA
BRANCH  28  30
ATOM     30  O   LIG    1       19.656 166.468  18.045  0.00  0.00    -0.387 OA
ATOM     31  H   LIG    1       19.576 166.367  17.080  0.00  0.00    +0.210 HD
ENDBRANCH  28  30
BRANCH  27  32
ATOM     32  O   LIG    1       18.155 164.777  16.450  0.00  0.00    -0.386 OA
ATOM     33  H   LIG    1       17.793 164.019  15.959  0.00  0.00    +0.210 HD
ENDBRANCH  27  32
BRANCH  26  34
ATOM     34  O   LIG    1       18.478 162.531  19.311  0.00  0.00    -0.384 OA
ATOM     35  H   LIG    1       19.005 163.181  19.803  0.00  0.00    +0.210 HD
ENDBRANCH  26  34
ENDBRANCH  24  25
ENDBRANCH  23  24
ENDBRANCH  22  23
TORSDOF 13
ENDMDL
MODEL 5
REMARK VINA RESULT:      -7.0     11.991     15.540
REMARK  Name = 9823887
REMARK                            x       y       z     vdW  Elec       q    Type
REMARK                         _______ _______ _______ _____ _____    ______ ____
ROOT
ATOM      1  O   LIG    1       15.722 165.149  18.312  0.00  0.00    -0.341 OA
ATOM      2  C   LIG    1       16.916 164.378  18.414  0.00  0.00    +0.282 C 
ATOM      3  C   LIG    1       16.694 163.163  19.316  0.00  0.00    +0.201 C 
ATOM      4  C   LIG    1       15.495 162.337  18.853  0.00  0.00    +0.179 C 
ATOM      5  C   LIG    1       14.276 163.224  18.601  0.00  0.00    +0.177 C 
ATOM     22  C   LIG    1       14.647 164.419  17.718  0.00  0.00    +0.178 C 
ENDROOT
BRANCH   5   6
ATOM      6  O   LIG    1       13.261 162.459  17.957  0.00  0.00    -0.386 OA
ATOM      7  H   LIG    1       13.661 161.626  17.652  0.00  0.00    +0.210 HD
ENDBRANCH   5   6
BRANCH   4   8
ATOM      8  O   LIG    1       15.150 161.390  19.865  0.00  0.00    -0.386 OA
ATOM      9  H   LIG    1       14.180 161.327  19.886  0.00  0.00    +0.210 HD
ENDBRANCH   4   8
BRANCH   3  10
ATOM     10  O   LIG    1       17.871 162.355  19.275  0.00  0.00    -0.384 OA
ATOM     11  H   LIG    1       18.244 162.412  18.380  0.00  0.00    +0.210 HD
ENDBRANCH   3  10
BRANCH   2  12
ATOM     12  O   LIG    1       17.954 165.170  18.988  0.00  0.00    -0.345 OA
BRANCH  12  13
ATOM     13  C   LIG    1       17.466 166.433  19.410  0.00  0.00    +0.190 C 
BRANCH  13  14
ATOM     14  C   LIG    1       18.406 167.495  18.935  0.00  0.00    +0.001 C 
ATOM     15  C   LIG    1       19.097 168.292  19.764  0.00  0.00    +0.006 C 
BRANCH  15  16
ATOM     16  C   LIG    1       20.043 169.340  19.343  0.00  0.00    -0.025 A 
ATOM     17  C   LIG    1       20.214 169.598  17.992  0.00  0.00    +0.008 A 
ATOM     18  C   LIG    1       21.109 170.590  17.594  0.00  0.00    +0.001 A 
ATOM     19  C   LIG    1       21.824 171.310  18.551  0.00  0.00    +0.000 A 
ATOM     20  C   LIG    1       21.642 171.039  19.907  0.00  0.00    +0.001 A 
ATOM     21  C   LIG    1       20.746 170.047  20.305  0.00  0.00    +0.008 A 
ENDBRANCH  15  16
ENDBRANCH  13  14
ENDBRANCH  12  13
ENDBRANCH   2  12
BRANCH  22  23
ATOM     23  C   LIG    1       13.475 165.381  17.548  0.00  0.00    +0.197 C 
BRANCH  23  24
ATOM     24  O   LIG    1       13.406 165.773  16.189  0.00  0.00    -0.346 OA
BRANCH  24  25
ATOM     25  C   LIG    1       12.204 165.328  15.571  0.00  0.00    +0.281 C 
ATOM     26  C   LIG    1       11.991 166.072  14.244  0.00  0.00    +0.201 C 
ATOM     27  C   LIG    1       12.938 165.575  13.146  0.00  0.00    +0.178 C 
ATOM     28  C   LIG    1       12.904 164.047  13.074  0.00  0.00    +0.171 C 
ATOM     29  C   LIG    1       13.153 163.439  14.448  0.00  0.00    +0.197 C 
ATOM     36  O   LIG    1       12.188 163.908  15.387  0.00  0.00    -0.346 OA
BRANCH  28  30
ATOM     30  O   LIG    1       13.875 163.586  12.145  0.00  0.00    -0.387 OA
ATOM     31  H   LIG    1       14.365 164.362  11.823  0.00  0.00    +0.210 HD
ENDBRANCH  28  30
BRANCH  27  32
ATOM     32  O   LIG    1       14.268 166.003  13.433  0.00  0.00    -0.386 OA
ATOM     33  H   LIG    1       14.862 165.554  12.806  0.00  0.00    +0.210 HD
ENDBRANCH  27  32
BRANCH  26  34
ATOM     34  O   LIG    1       10.642 165.865  13.833  0.00  0.00    -0.384 OA
ATOM     35  H   LIG    1       10.640 165.246  13.084  0.00  0.00    +0.210 HD
ENDBRANCH  26  34
ENDBRANCH  24  25
ENDBRANCH  23  24
ENDBRANCH  22  23
TORSDOF 13
ENDMDL
MODEL 6
REMARK VINA RESULT:      -6.9     11.448     17.008
REMARK  Name = 9823887
REMARK                            x       y       z     vdW  Elec       q    Type
REMARK                         _______ _______ _______ _____ _____    ______ ____
ROOT
ATOM      1  O   LIG    1       15.846 164.160  16.470  0.00  0.00    -0.341 OA
ATOM      2  C   LIG    1       16.885 163.954  15.515  0.00  0.00    +0.282 C 
ATOM      3  C   LIG    1       18.256 164.103  16.175  0.00  0.00    +0.201 C 
ATOM      4  C   LIG    1       18.388 163.197  17.398  0.00  0.00    +0.179 C 
ATOM      5  C   LIG    1       17.176 163.331  18.320  0.00  0.00    +0.177 C 
ATOM     22  C   LIG    1       15.873 163.199  17.526  0.00  0.00    +0.178 C 
ENDROOT
BRANCH   5   6
ATOM      6  O   LIG    1       17.226 162.314  19.316  0.00  0.00    -0.386 OA
ATOM      7  H   LIG    1       16.360 162.285  19.759  0.00  0.00    +0.210 HD
ENDBRANCH   5   6
BRANCH   4   8
ATOM      8  O   LIG    1       19.550 163.567  18.142  0.00  0.00    -0.386 OA
ATOM      9  H   LIG    1       20.157 164.016  17.529  0.00  0.00    +0.210 HD
ENDBRANCH   4   8
BRANCH   3  10
ATOM     10  O   LIG    1       19.254 163.754  15.216  0.00  0.00    -0.384 OA
ATOM     11  H   LIG    1       20.106 163.684  15.679  0.00  0.00    +0.210 HD
ENDBRANCH   3  10
BRANCH   2  12
ATOM     12  O   LIG    1       16.787 164.927  14.477  0.00  0.00    -0.345 OA
BRANCH  12  13
ATOM     13  C   LIG    1       15.472 165.452  14.384  0.00  0.00    +0.190 C 
BRANCH  13  14
ATOM     14  C   LIG    1       15.123 165.623  12.941  0.00  0.00    +0.001 C 
ATOM     15  C   LIG    1       15.998 166.045  12.016  0.00  0.00    +0.006 C 
BRANCH  15  16
ATOM     16  C   LIG    1       15.704 166.214  10.582  0.00  0.00    -0.025 A 
ATOM     17  C   LIG    1       16.746 166.437   9.696  0.00  0.00    +0.008 A 
ATOM     18  C   LIG    1       16.466 166.597   8.340  0.00  0.00    +0.001 A 
ATOM     19  C   LIG    1       15.149 166.534   7.886  0.00  0.00    +0.000 A 
ATOM     20  C   LIG    1       14.110 166.309   8.789  0.00  0.00    +0.001 A 
ATOM     21  C   LIG    1       14.390 166.149  10.146  0.00  0.00    +0.008 A 
ENDBRANCH  15  16
ENDBRANCH  13  14
ENDBRANCH  12  13
ENDBRANCH   2  12
BRANCH  22  23
ATOM     23  C   LIG    1       14.650 163.445  18.404  0.00  0.00    +0.197 C 
BRANCH  23  24
ATOM     24  O   LIG    1       15.067 164.113  19.581  0.00  0.00    -0.346 OA
BRANCH  24  25
ATOM     25  C   LIG    1       13.959 164.519  20.379  0.00  0.00    +0.281 C 
ATOM     26  C   LIG    1       13.141 163.289  20.803  0.00  0.00    +0.201 C 
ATOM     27  C   LIG    1       13.846 162.477  21.894  0.00  0.00    +0.178 C 
ATOM     28  C   LIG    1       14.306 163.400  23.023  0.00  0.00    +0.171 C 
ATOM     29  C   LIG    1       15.125 164.559  22.469  0.00  0.00    +0.197 C 
ATOM     36  O   LIG    1       14.368 165.295  21.510  0.00  0.00    -0.346 OA
BRANCH  28  30
ATOM     30  O   LIG    1       15.068 162.663  23.969  0.00  0.00    -0.387 OA
ATOM     31  H   LIG    1       15.686 163.282  24.395  0.00  0.00    +0.210 HD
ENDBRANCH  28  30
BRANCH  27  32
ATOM     32  O   LIG    1       14.978 161.811  21.338  0.00  0.00    -0.386 OA
ATOM     33  H   LIG    1       15.367 162.402  20.671  0.00  0.00    +0.210 HD
ENDBRANCH  27  32
BRANCH  26  34
ATOM     34  O   LIG    1       11.882 163.745  21.291  0.00  0.00    -0.384 OA
ATOM     35  H   LIG    1       11.180 163.234  20.855  0.00  0.00    +0.210 HD
ENDBRANCH  26  34
ENDBRANCH  24  25
ENDBRANCH  23  24
ENDBRANCH  22  23
TORSDOF 13
ENDMDL
MODEL 7
REMARK VINA RESULT:      -6.8      8.810     13.343
REMARK  Name = 9823887
REMARK                            x       y       z     vdW  Elec       q    Type
REMARK                         _______ _______ _______ _____ _____    ______ ____
ROOT
ATOM      1  O   LIG    1       19.178 164.971  20.895  0.00  0.00    -0.341 OA
ATOM      2  C   LIG    1       19.176 164.437  19.573  0.00  0.00    +0.282 C 
ATOM      3  C   LIG    1       19.393 165.549  18.546  0.00  0.00    +0.201 C 
ATOM      4  C   LIG    1       20.653 166.356  18.857  0.00  0.00    +0.179 C 
ATOM      5  C   LIG    1       20.694 166.775  20.326  0.00  0.00    +0.177 C 
ATOM     22  C   LIG    1       20.425 165.577  21.241  0.00  0.00    +0.178 C 
ENDROOT
BRANCH   5   6
ATOM      6  O   LIG    1       21.977 167.318  20.627  0.00  0.00    -0.386 OA
ATOM      7  H   LIG    1       22.097 167.287  21.592  0.00  0.00    +0.210 HD
ENDBRANCH   5   6
BRANCH   4   8
ATOM      8  O   LIG    1       20.667 167.541  18.060  0.00  0.00    -0.386 OA
ATOM      9  H   LIG    1       21.504 167.548  17.565  0.00  0.00    +0.210 HD
ENDBRANCH   4   8
BRANCH   3  10
ATOM     10  O   LIG    1       19.520 164.949  17.258  0.00  0.00    -0.384 OA
ATOM     11  H   LIG    1       18.838 164.261  17.177  0.00  0.00    +0.210 HD
ENDBRANCH   3  10
BRANCH   2  12
ATOM     12  O   LIG    1       17.917 163.826  19.302  0.00  0.00    -0.345 OA
BRANCH  12  13
ATOM     13  C   LIG    1       16.849 164.746  19.465  0.00  0.00    +0.190 C 
BRANCH  13  14
ATOM     14  C   LIG    1       15.866 164.545  18.358  0.00  0.00    +0.001 C 
ATOM     15  C   LIG    1       16.098 163.750  17.301  0.00  0.00    +0.006 C 
BRANCH  15  16
ATOM     16  C   LIG    1       15.154 163.511  16.196  0.00  0.00    -0.025 A 
ATOM     17  C   LIG    1       13.820 163.269  16.481  0.00  0.00    +0.008 A 
ATOM     18  C   LIG    1       12.928 163.042  15.434  0.00  0.00    +0.001 A 
ATOM     19  C   LIG    1       13.380 163.059  14.115  0.00  0.00    +0.000 A 
ATOM     20  C   LIG    1       14.726 163.304  13.842  0.00  0.00    +0.001 A 
ATOM     21  C   LIG    1       15.619 163.531  14.890  0.00  0.00    +0.008 A 
ENDBRANCH  15  16
ENDBRANCH  13  14
ENDBRANCH  12  13
ENDBRANCH   2  12
BRANCH  22  23
ATOM     23  C   LIG    1       20.345 165.992  22.707  0.00  0.00    +0.197 C 
BRANCH  23  24
ATOM     24  O   LIG    1       21.614 166.476  23.108  0.00  0.00    -0.346 OA
BRANCH  24  25
ATOM     25  C   LIG    1       22.406 165.453  23.702  0.00  0.00    +0.281 C 
ATOM     26  C   LIG    1       23.761 165.357  22.985  0.00  0.00    +0.201 C 
ATOM     27  C   LIG    1       24.689 166.521  23.349  0.00  0.00    +0.178 C 
ATOM     28  C   LIG    1       24.742 166.696  24.868  0.00  0.00    +0.171 C 
ATOM     29  C   LIG    1       23.337 166.802  25.446  0.00  0.00    +0.197 C 
ATOM     36  O   LIG    1       22.568 165.649  25.111  0.00  0.00    -0.346 OA
BRANCH  28  30
ATOM     30  O   LIG    1       25.501 167.853  25.193  0.00  0.00    -0.387 OA
ATOM     31  H   LIG    1       25.221 168.148  26.077  0.00  0.00    +0.210 HD
ENDBRANCH  28  30
BRANCH  27  32
ATOM     32  O   LIG    1       24.205 167.723  22.753  0.00  0.00    -0.386 OA
ATOM     33  H   LIG    1       24.239 167.605  21.788  0.00  0.00    +0.210 HD
ENDBRANCH  27  32
BRANCH  26  34
ATOM     34  O   LIG    1       24.375 164.128  23.363  0.00  0.00    -0.384 OA
ATOM     35  H   LIG    1       25.339 164.249  23.354  0.00  0.00    +0.210 HD
ENDBRANCH  26  34
ENDBRANCH  24  25
ENDBRANCH  23  24
ENDBRANCH  22  23
TORSDOF 13
ENDMDL
MODEL 8
REMARK VINA RESULT:      -6.7     15.125     17.973
REMARK  Name = 9823887
REMARK                            x       y       z     vdW  Elec       q    Type
REMARK                         _______ _______ _______ _____ _____    ______ ____
ROOT
ATOM      1  O   LIG    1       10.729 146.981  31.023  0.00  0.00    -0.341 OA
ATOM      2  C   LIG    1       10.750 146.782  29.611  0.00  0.00    +0.282 C 
ATOM      3  C   LIG    1       12.182 146.862  29.080  0.00  0.00    +0.201 C 
ATOM      4  C   LIG    1       13.107 145.903  29.827  0.00  0.00    +0.179 C 
ATOM      5  C   LIG    1       12.939 146.036  31.340  0.00  0.00    +0.177 C 
ATOM     22  C   LIG    1       11.460 145.977  31.729  0.00  0.00    +0.178 C 
ENDROOT
BRANCH   5   6
ATOM      6  O   LIG    1       13.640 144.977  31.988  0.00  0.00    -0.386 OA
ATOM      7  H   LIG    1       14.156 145.362  32.717  0.00  0.00    +0.210 HD
ENDBRANCH   5   6
BRANCH   4   8
ATOM      8  O   LIG    1       14.466 146.206  29.505  0.00  0.00    -0.386 OA
ATOM      9  H   LIG    1       14.761 146.902  30.117  0.00  0.00    +0.210 HD
ENDBRANCH   4   8
BRANCH   3  10
ATOM     10  O   LIG    1       12.164 146.522  27.694  0.00  0.00    -0.384 OA
ATOM     11  H   LIG    1       12.955 146.905  27.279  0.00  0.00    +0.210 HD
ENDBRANCH   3  10
BRANCH   2  12
ATOM     12  O   LIG    1        9.984 147.799  28.969  0.00  0.00    -0.345 OA
BRANCH  12  13
ATOM     13  C   LIG    1        8.593 147.532  29.057  0.00  0.00    +0.190 C 
BRANCH  13  14
ATOM     14  C   LIG    1        7.869 148.820  29.282  0.00  0.00    +0.001 C 
ATOM     15  C   LIG    1        8.462 150.022  29.210  0.00  0.00    +0.006 C 
BRANCH  15  16
ATOM     16  C   LIG    1        7.786 151.315  29.409  0.00  0.00    -0.025 A 
ATOM     17  C   LIG    1        8.533 152.422  29.780  0.00  0.00    +0.008 A 
ATOM     18  C   LIG    1        7.893 153.646  29.968  0.00  0.00    +0.001 A 
ATOM     19  C   LIG    1        6.514 153.749  29.784  0.00  0.00    +0.000 A 
ATOM     20  C   LIG    1        5.775 152.627  29.410  0.00  0.00    +0.001 A 
ATOM     21  C   LIG    1        6.416 151.402  29.222  0.00  0.00    +0.008 A 
ENDBRANCH  15  16
ENDBRANCH  13  14
ENDBRANCH  12  13
ENDBRANCH   2  12
BRANCH  22  23
ATOM     23  C   LIG    1       11.258 146.224  33.221  0.00  0.00    +0.197 C 
BRANCH  23  24
ATOM     24  O   LIG    1       12.225 147.162  33.658  0.00  0.00    -0.346 OA
BRANCH  24  25
ATOM     25  C   LIG    1       12.618 146.926  35.006  0.00  0.00    +0.281 C 
ATOM     26  C   LIG    1       14.027 146.314  35.041  0.00  0.00    +0.201 C 
ATOM     27  C   LIG    1       15.113 147.349  34.727  0.00  0.00    +0.178 C 
ATOM     28  C   LIG    1       14.904 148.605  35.575  0.00  0.00    +0.171 C 
ATOM     29  C   LIG    1       13.477 149.120  35.429  0.00  0.00    +0.197 C 
ATOM     36  O   LIG    1       12.539 148.113  35.803  0.00  0.00    -0.346 OA
BRANCH  28  30
ATOM     30  O   LIG    1       15.834 149.607  35.190  0.00  0.00    -0.387 OA
ATOM     31  H   LIG    1       15.512 150.457  35.538  0.00  0.00    +0.210 HD
ENDBRANCH  28  30
BRANCH  27  32
ATOM     32  O   LIG    1       15.055 147.699  33.345  0.00  0.00    -0.386 OA
ATOM     33  H   LIG    1       15.434 148.590  33.252  0.00  0.00    +0.210 HD
ENDBRANCH  27  32
BRANCH  26  34
ATOM     34  O   LIG    1       14.244 145.782  36.345  0.00  0.00    -0.384 OA
ATOM     35  H   LIG    1       14.168 144.815  36.300  0.00  0.00    +0.210 HD
ENDBRANCH  26  34
ENDBRANCH  24  25
ENDBRANCH  23  24
ENDBRANCH  22  23
TORSDOF 13
ENDMDL
MODEL 9
REMARK VINA RESULT:      -6.7     16.202     18.110
REMARK  Name = 9823887
REMARK                            x       y       z     vdW  Elec       q    Type
REMARK                         _______ _______ _______ _____ _____    ______ ____
ROOT
ATOM      1  O   LIG    1        9.524 147.601  31.028  0.00  0.00    -0.341 OA
ATOM      2  C   LIG    1        9.621 146.289  30.478  0.00  0.00    +0.282 C 
ATOM      3  C   LIG    1        8.346 145.934  29.712  0.00  0.00    +0.201 C 
ATOM      4  C   LIG    1        8.014 146.994  28.662  0.00  0.00    +0.179 C 
ATOM      5  C   LIG    1        8.077 148.400  29.255  0.00  0.00    +0.177 C 
ATOM     22  C   LIG    1        9.384 148.608  30.024  0.00  0.00    +0.178 C 
ENDROOT
BRANCH   5   6
ATOM      6  O   LIG    1        7.991 149.360  28.205  0.00  0.00    -0.386 OA
ATOM      7  H   LIG    1        7.124 149.257  27.775  0.00  0.00    +0.210 HD
ENDBRANCH   5   6
BRANCH   4   8
ATOM      8  O   LIG    1        6.689 146.780  28.173  0.00  0.00    -0.386 OA
ATOM      9  H   LIG    1        6.107 146.678  28.944  0.00  0.00    +0.210 HD
ENDBRANCH   4   8
BRANCH   3  10
ATOM     10  O   LIG    1        8.547 144.676  29.069  0.00  0.00    -0.384 OA
ATOM     11  H   LIG    1        8.514 144.819  28.109  0.00  0.00    +0.210 HD
ENDBRANCH   3  10
BRANCH   2  12
ATOM     12  O   LIG    1        9.785 145.337  31.527  0.00  0.00    -0.345 OA
BRANCH  12  13
ATOM     13  C   LIG    1       11.092 145.391  32.074  0.00  0.00    +0.190 C 
BRANCH  13  14
ATOM     14  C   LIG    1       12.085 145.334  30.958  0.00  0.00    +0.001 C 
ATOM     15  C   LIG    1       12.278 144.246  30.197  0.00  0.00    +0.006 C 
BRANCH  15  16
ATOM     16  C   LIG    1       13.232 144.150  29.079  0.00  0.00    -0.025 A 
ATOM     17  C   LIG    1       13.348 142.955  28.386  0.00  0.00    +0.008 A 
ATOM     18  C   LIG    1       14.251 142.865  27.328  0.00  0.00    +0.001 A 
ATOM     19  C   LIG    1       15.028 143.968  26.977  0.00  0.00    +0.000 A 
ATOM     20  C   LIG    1       14.901 145.164  27.683  0.00  0.00    +0.001 A 
ATOM     21  C   LIG    1       13.997 145.255  28.742  0.00  0.00    +0.008 A 
ENDBRANCH  15  16
ENDBRANCH  13  14
ENDBRANCH  12  13
ENDBRANCH   2  12
BRANCH  22  23
ATOM     23  C   LIG    1        9.420 149.963  30.724  0.00  0.00    +0.197 C 
BRANCH  23  24
ATOM     24  O   LIG    1        8.135 150.552  30.630  0.00  0.00    -0.346 OA
BRANCH  24  25
ATOM     25  C   LIG    1        8.183 151.959  30.841  0.00  0.00    +0.281 C 
ATOM     26  C   LIG    1        7.701 152.694  29.580  0.00  0.00    +0.201 C 
ATOM     27  C   LIG    1        6.181 152.601  29.405  0.00  0.00    +0.178 C 
ATOM     28  C   LIG    1        5.477 152.973  30.711  0.00  0.00    +0.171 C 
ATOM     29  C   LIG    1        6.031 152.157  31.872  0.00  0.00    +0.197 C 
ATOM     36  O   LIG    1        7.438 152.354  31.998  0.00  0.00    -0.346 OA
BRANCH  28  30
ATOM     30  O   LIG    1        4.078 152.763  30.581  0.00  0.00    -0.387 OA
ATOM     31  H   LIG    1        3.890 151.850  30.859  0.00  0.00    +0.210 HD
ENDBRANCH  28  30
BRANCH  27  32
ATOM     32  O   LIG    1        5.823 151.270  29.039  0.00  0.00    -0.386 OA
ATOM     33  H   LIG    1        4.901 151.290  28.729  0.00  0.00    +0.210 HD
ENDBRANCH  27  32
BRANCH  26  34
ATOM     34  O   LIG    1        8.080 154.063  29.696  0.00  0.00    -0.384 OA
ATOM     35  H   LIG    1        7.998 154.328  30.627  0.00  0.00    +0.210 HD
ENDBRANCH  26  34
ENDBRANCH  24  25
ENDBRANCH  23  24
ENDBRANCH  22  23
TORSDOF 13
ENDMDL
