MODEL 1
REMARK VINA RESULT:      -6.5      0.000      0.000
REMARK  Name = 159278
REMARK                            x       y       z     vdW  Elec       q    Type
REMARK                         _______ _______ _______ _____ _____    ______ ____
ROOT
ATOM      1  O   LIG    1       13.161 144.439  29.190  0.00  0.00    -0.341 OA
ATOM      2  C   LIG    1       13.548 145.668  28.577  0.00  0.00    +0.282 C 
ATOM      3  C   LIG    1       14.934 145.537  27.945  0.00  0.00    +0.201 C 
ATOM      4  C   LIG    1       14.998 144.350  26.984  0.00  0.00    +0.179 C 
ATOM      5  C   LIG    1       14.425 143.086  27.626  0.00  0.00    +0.177 C 
ATOM     23  C   LIG    1       13.057 143.367  28.251  0.00  0.00    +0.178 C 
ENDROOT
BRANCH   5   6
ATOM      6  O   LIG    1       14.289 142.073  26.633  0.00  0.00    -0.386 OA
ATOM      7  H   LIG    1       14.645 142.421  25.797  0.00  0.00    +0.210 HD
ENDBRANCH   5   6
BRANCH   4   8
ATOM      8  O   LIG    1       16.359 144.091  26.637  0.00  0.00    -0.386 OA
ATOM      9  H   LIG    1       16.399 143.986  25.671  0.00  0.00    +0.210 HD
ENDBRANCH   4   8
BRANCH   3  10
ATOM     10  O   LIG    1       15.215 146.740  27.231  0.00  0.00    -0.384 OA
ATOM     11  H   LIG    1       14.533 146.852  26.546  0.00  0.00    +0.210 HD
ENDBRANCH   3  10
BRANCH   2  12
ATOM     12  O   LIG    1       13.609 146.699  29.560  0.00  0.00    -0.348 OA
BRANCH  12  13
ATOM     13  C   LIG    1       12.598 147.674  29.350  0.00  0.00    +0.168 C 
BRANCH  13  14
ATOM     14  C   LIG    1       11.476 147.479  30.363  0.00  0.00    +0.063 C 
BRANCH  14  15
ATOM     15  C   LIG    1       10.214 146.949  29.727  0.00  0.00    -0.045 A 
ATOM     16  C   LIG    1        9.158 146.559  30.535  0.00  0.00    +0.007 A 
ATOM     17  C   LIG    1        7.991 146.070  29.948  0.00  0.00    +0.045 A 
ATOM     18  C   LIG    1        7.896 145.978  28.560  0.00  0.00    +0.117 A 
ATOM     19  C   LIG    1        8.967 146.374  27.758  0.00  0.00    +0.045 A 
ATOM     22  C   LIG    1       10.134 146.863  28.347  0.00  0.00    +0.007 A 
BRANCH  18  20
ATOM     20  O   LIG    1        6.758 145.500  27.985  0.00  0.00    -0.507 OA
ATOM     21  H   LIG    1        6.999 144.929  27.236  0.00  0.00    +0.292 HD
ENDBRANCH  18  20
ENDBRANCH  14  15
ENDBRANCH  13  14
ENDBRANCH  12  13
ENDBRANCH   2  12
BRANCH  23  24
ATOM     24  C   LIG    1       12.518 142.153  29.000  0.00  0.00    +0.190 C 
BRANCH  24  25
ATOM     25  O   LIG    1       11.985 141.241  28.057  0.00  0.00    -0.392 OA
ATOM     26  H   LIG    1       11.651 140.472  28.549  0.00  0.00    +0.210 HD
ENDBRANCH  24  25
ENDBRANCH  23  24
TORSDOF 10
ENDMDL
MODEL 2
REMARK VINA RESULT:      -6.2      2.005      3.482
REMARK  Name = 159278
REMARK                            x       y       z     vdW  Elec       q    Type
REMARK                         _______ _______ _______ _____ _____    ______ ____
ROOT
ATOM      1  O   LIG    1       14.053 146.424  28.681  0.00  0.00    -0.341 OA
ATOM      2  C   LIG    1       13.414 145.508  29.567  0.00  0.00    +0.282 C 
ATOM      3  C   LIG    1       12.969 144.255  28.813  0.00  0.00    +0.201 C 
ATOM      4  C   LIG    1       14.133 143.623  28.048  0.00  0.00    +0.179 C 
ATOM      5  C   LIG    1       14.892 144.670  27.233  0.00  0.00    +0.177 C 
ATOM     23  C   LIG    1       15.240 145.884  28.097  0.00  0.00    +0.178 C 
ENDROOT
BRANCH   5   6
ATOM      6  O   LIG    1       16.093 144.093  26.726  0.00  0.00    -0.386 OA
ATOM      7  H   LIG    1       16.192 144.370  25.800  0.00  0.00    +0.210 HD
ENDBRANCH   5   6
BRANCH   4   8
ATOM      8  O   LIG    1       13.629 142.639  27.144  0.00  0.00    -0.386 OA
ATOM      9  H   LIG    1       13.700 141.775  27.585  0.00  0.00    +0.210 HD
ENDBRANCH   4   8
BRANCH   3  10
ATOM     10  O   LIG    1       12.463 143.317  29.763  0.00  0.00    -0.384 OA
ATOM     11  H   LIG    1       12.327 143.783  30.605  0.00  0.00    +0.210 HD
ENDBRANCH   3  10
BRANCH   2  12
ATOM     12  O   LIG    1       12.253 146.115  30.132  0.00  0.00    -0.348 OA
BRANCH  12  13
ATOM     13  C   LIG    1       11.676 147.056  29.239  0.00  0.00    +0.168 C 
BRANCH  13  14
ATOM     14  C   LIG    1       10.306 146.564  28.787  0.00  0.00    +0.063 C 
BRANCH  14  15
ATOM     15  C   LIG    1        9.257 147.648  28.851  0.00  0.00    -0.045 A 
ATOM     16  C   LIG    1        9.471 148.751  29.662  0.00  0.00    +0.007 A 
ATOM     17  C   LIG    1        8.502 149.753  29.722  0.00  0.00    +0.045 A 
ATOM     18  C   LIG    1        7.333 149.638  28.971  0.00  0.00    +0.117 A 
ATOM     19  C   LIG    1        7.132 148.521  28.160  0.00  0.00    +0.045 A 
ATOM     22  C   LIG    1        8.101 147.520  28.100  0.00  0.00    +0.007 A 
BRANCH  18  20
ATOM     20  O   LIG    1        6.387 150.615  29.029  0.00  0.00    -0.507 OA
ATOM     21  H   LIG    1        5.910 150.643  28.182  0.00  0.00    +0.292 HD
ENDBRANCH  18  20
ENDBRANCH  14  15
ENDBRANCH  13  14
ENDBRANCH  12  13
ENDBRANCH   2  12
BRANCH  23  24
ATOM     24  C   LIG    1       15.894 146.992  27.278  0.00  0.00    +0.190 C 
BRANCH  24  25
ATOM     25  O   LIG    1       15.458 148.241  27.780  0.00  0.00    -0.392 OA
ATOM     26  H   LIG    1       16.090 148.916  27.479  0.00  0.00    +0.210 HD
ENDBRANCH  24  25
ENDBRANCH  23  24
TORSDOF 10
ENDMDL
MODEL 3
REMARK VINA RESULT:      -6.2     14.942     17.133
REMARK  Name = 159278
REMARK                            x       y       z     vdW  Elec       q    Type
REMARK                         _______ _______ _______ _____ _____    ______ ____
ROOT
ATOM      1  O   LIG    1       22.340 157.430  27.274  0.00  0.00    -0.341 OA
ATOM      2  C   LIG    1       21.870 158.508  28.082  0.00  0.00    +0.282 C 
ATOM      3  C   LIG    1       21.698 159.772  27.240  0.00  0.00    +0.201 C 
ATOM      4  C   LIG    1       20.809 159.514  26.023  0.00  0.00    +0.179 C 
ATOM      5  C   LIG    1       21.249 158.256  25.274  0.00  0.00    +0.177 C 
ATOM     23  C   LIG    1       21.420 157.080  26.238  0.00  0.00    +0.178 C 
ENDROOT
BRANCH   5   6
ATOM      6  O   LIG    1       20.268 157.923  24.295  0.00  0.00    -0.386 OA
ATOM      7  H   LIG    1       20.722 157.797  23.445  0.00  0.00    +0.210 HD
ENDBRANCH   5   6
BRANCH   4   8
ATOM      8  O   LIG    1       20.901 160.619  25.124  0.00  0.00    -0.386 OA
ATOM      9  H   LIG    1       20.030 161.052  25.104  0.00  0.00    +0.210 HD
ENDBRANCH   4   8
BRANCH   3  10
ATOM     10  O   LIG    1       21.099 160.776  28.059  0.00  0.00    -0.384 OA
ATOM     11  H   LIG    1       20.576 160.332  28.748  0.00  0.00    +0.210 HD
ENDBRANCH   3  10
BRANCH   2  12
ATOM     12  O   LIG    1       22.820 158.790  29.108  0.00  0.00    -0.348 OA
BRANCH  12  13
ATOM     13  C   LIG    1       23.346 157.595  29.668  0.00  0.00    +0.168 C 
BRANCH  13  14
ATOM     14  C   LIG    1       22.819 157.415  31.087  0.00  0.00    +0.063 C 
BRANCH  14  15
ATOM     15  C   LIG    1       23.706 156.520  31.918  0.00  0.00    -0.045 A 
ATOM     16  C   LIG    1       25.077 156.544  31.714  0.00  0.00    +0.007 A 
ATOM     17  C   LIG    1       25.897 155.717  32.482  0.00  0.00    +0.045 A 
ATOM     18  C   LIG    1       25.336 154.878  33.444  0.00  0.00    +0.117 A 
ATOM     19  C   LIG    1       23.954 154.865  33.638  0.00  0.00    +0.045 A 
ATOM     22  C   LIG    1       23.135 155.692  32.870  0.00  0.00    +0.007 A 
BRANCH  18  20
ATOM     20  O   LIG    1       26.135 154.071  34.194  0.00  0.00    -0.507 OA
ATOM     21  H   LIG    1       27.048 154.137  33.864  0.00  0.00    +0.292 HD
ENDBRANCH  18  20
ENDBRANCH  14  15
ENDBRANCH  13  14
ENDBRANCH  12  13
ENDBRANCH   2  12
BRANCH  23  24
ATOM     24  C   LIG    1       21.972 155.846  25.533  0.00  0.00    +0.190 C 
BRANCH  24  25
ATOM     25  O   LIG    1       20.918 155.223  24.822  0.00  0.00    -0.392 OA
ATOM     26  H   LIG    1       20.696 154.399  25.287  0.00  0.00    +0.210 HD
ENDBRANCH  24  25
ENDBRANCH  23  24
TORSDOF 10
ENDMDL
MODEL 4
REMARK VINA RESULT:      -5.8     29.029     30.932
REMARK  Name = 159278
REMARK                            x       y       z     vdW  Elec       q    Type
REMARK                         _______ _______ _______ _____ _____    ______ ____
ROOT
ATOM      1  O   LIG    1       35.419 153.971  45.453  0.00  0.00    -0.341 OA
ATOM      2  C   LIG    1       36.208 154.386  46.566  0.00  0.00    +0.282 C 
ATOM      3  C   LIG    1       37.633 153.846  46.443  0.00  0.00    +0.201 C 
ATOM      4  C   LIG    1       38.257 154.226  45.099  0.00  0.00    +0.179 C 
ATOM      5  C   LIG    1       37.311 153.910  43.941  0.00  0.00    +0.177 C 
ATOM     23  C   LIG    1       35.914 154.473  44.211  0.00  0.00    +0.178 C 
ENDROOT
BRANCH   5   6
ATOM      6  O   LIG    1       37.826 154.485  42.742  0.00  0.00    -0.386 OA
ATOM      7  H   LIG    1       37.803 153.804  42.048  0.00  0.00    +0.210 HD
ENDBRANCH   5   6
BRANCH   4   8
ATOM      8  O   LIG    1       39.458 153.478  44.905  0.00  0.00    -0.386 OA
ATOM      9  H   LIG    1       40.074 154.040  44.404  0.00  0.00    +0.210 HD
ENDBRANCH   4   8
BRANCH   3  10
ATOM     10  O   LIG    1       38.414 154.400  47.501  0.00  0.00    -0.384 OA
ATOM     11  H   LIG    1       39.337 154.456  47.198  0.00  0.00    +0.210 HD
ENDBRANCH   3  10
BRANCH   2  12
ATOM     12  O   LIG    1       35.647 153.872  47.773  0.00  0.00    -0.348 OA
BRANCH  12  13
ATOM     13  C   LIG    1       35.088 154.910  48.565  0.00  0.00    +0.168 C 
BRANCH  13  14
ATOM     14  C   LIG    1       35.089 156.216  47.779  0.00  0.00    +0.063 C 
BRANCH  14  15
ATOM     15  C   LIG    1       33.736 156.885  47.775  0.00  0.00    -0.045 A 
ATOM     16  C   LIG    1       32.654 156.231  48.344  0.00  0.00    +0.007 A 
ATOM     17  C   LIG    1       31.403 156.848  48.341  0.00  0.00    +0.045 A 
ATOM     18  C   LIG    1       31.251 158.110  47.769  0.00  0.00    +0.117 A 
ATOM     19  C   LIG    1       32.348 158.756  47.199  0.00  0.00    +0.045 A 
ATOM     22  C   LIG    1       33.599 158.138  47.203  0.00  0.00    +0.007 A 
BRANCH  18  20
ATOM     20  O   LIG    1       30.030 158.713  47.766  0.00  0.00    -0.507 OA
ATOM     21  H   LIG    1       30.049 159.459  47.141  0.00  0.00    +0.292 HD
ENDBRANCH  18  20
ENDBRANCH  14  15
ENDBRANCH  13  14
ENDBRANCH  12  13
ENDBRANCH   2  12
BRANCH  23  24
ATOM     24  C   LIG    1       34.923 154.071  43.125  0.00  0.00    +0.190 C 
BRANCH  24  25
ATOM     25  O   LIG    1       35.519 153.074  42.316  0.00  0.00    -0.392 OA
ATOM     26  H   LIG    1       36.419 153.369  42.101  0.00  0.00    +0.210 HD
ENDBRANCH  24  25
ENDBRANCH  23  24
TORSDOF 10
ENDMDL
MODEL 5
REMARK VINA RESULT:      -5.8      3.940      7.332
REMARK  Name = 159278
REMARK                            x       y       z     vdW  Elec       q    Type
REMARK                         _______ _______ _______ _____ _____    ______ ____
ROOT
ATOM      1  O   LIG    1       13.206 148.378  32.977  0.00  0.00    -0.341 OA
ATOM      2  C   LIG    1       12.737 147.152  33.534  0.00  0.00    +0.282 C 
ATOM      3  C   LIG    1       13.894 146.369  34.154  0.00  0.00    +0.201 C 
ATOM      4  C   LIG    1       14.665 147.220  35.163  0.00  0.00    +0.179 C 
ATOM      5  C   LIG    1       15.011 148.591  34.579  0.00  0.00    +0.177 C 
ATOM     23  C   LIG    1       13.775 149.245  33.959  0.00  0.00    +0.178 C 
ENDROOT
BRANCH   5   6
ATOM      6  O   LIG    1       15.518 149.429  35.615  0.00  0.00    -0.386 OA
ATOM      7  H   LIG    1       14.779 149.955  35.965  0.00  0.00    +0.210 HD
ENDBRANCH   5   6
BRANCH   4   8
ATOM      8  O   LIG    1       15.887 146.564  35.504  0.00  0.00    -0.386 OA
ATOM      9  H   LIG    1       15.719 146.032  36.300  0.00  0.00    +0.210 HD
ENDBRANCH   4   8
BRANCH   3  10
ATOM     10  O   LIG    1       13.355 145.224  34.816  0.00  0.00    -0.384 OA
ATOM     11  H   LIG    1       12.392 145.341  34.887  0.00  0.00    +0.210 HD
ENDBRANCH   3  10
BRANCH   2  12
ATOM     12  O   LIG    1       12.161 146.346  32.508  0.00  0.00    -0.348 OA
BRANCH  12  13
ATOM     13  C   LIG    1       12.688 146.678  31.232  0.00  0.00    +0.168 C 
BRANCH  13  14
ATOM     14  C   LIG    1       12.133 145.724  30.181  0.00  0.00    +0.063 C 
BRANCH  14  15
ATOM     15  C   LIG    1       13.180 145.307  29.176  0.00  0.00    -0.045 A 
ATOM     16  C   LIG    1       14.014 146.267  28.626  0.00  0.00    +0.007 A 
ATOM     17  C   LIG    1       14.981 145.882  27.697  0.00  0.00    +0.045 A 
ATOM     18  C   LIG    1       15.101 144.542  27.332  0.00  0.00    +0.117 A 
ATOM     19  C   LIG    1       14.254 143.586  27.894  0.00  0.00    +0.045 A 
ATOM     22  C   LIG    1       13.287 143.972  28.822  0.00  0.00    +0.007 A 
BRANCH  18  20
ATOM     20  O   LIG    1       16.045 144.166  26.425  0.00  0.00    -0.507 OA
ATOM     21  H   LIG    1       16.326 144.948  25.920  0.00  0.00    +0.292 HD
ENDBRANCH  18  20
ENDBRANCH  14  15
ENDBRANCH  13  14
ENDBRANCH  12  13
ENDBRANCH   2  12
BRANCH  23  24
ATOM     24  C   LIG    1       14.119 150.560  33.267  0.00  0.00    +0.190 C 
BRANCH  24  25
ATOM     25  O   LIG    1       15.472 150.513  32.856  0.00  0.00    -0.392 OA
ATOM     26  H   LIG    1       16.024 150.520  33.656  0.00  0.00    +0.210 HD
ENDBRANCH  24  25
ENDBRANCH  23  24
TORSDOF 10
ENDMDL
MODEL 6
REMARK VINA RESULT:      -5.8     19.192     22.306
REMARK  Name = 159278
REMARK                            x       y       z     vdW  Elec       q    Type
REMARK                         _______ _______ _______ _____ _____    ______ ____
ROOT
ATOM      1  O   LIG    1       30.171 135.922  27.321  0.00  0.00    -0.341 OA
ATOM      2  C   LIG    1       31.014 137.006  26.934  0.00  0.00    +0.282 C 
ATOM      3  C   LIG    1       30.431 138.335  27.416  0.00  0.00    +0.201 C 
ATOM      4  C   LIG    1       30.153 138.309  28.919  0.00  0.00    +0.179 C 
ATOM      5  C   LIG    1       29.385 137.048  29.317  0.00  0.00    +0.177 C 
ATOM     23  C   LIG    1       30.052 135.799  28.739  0.00  0.00    +0.178 C 
ENDROOT
BRANCH   5   6
ATOM      6  O   LIG    1       29.349 136.948  30.739  0.00  0.00    -0.386 OA
ATOM      7  H   LIG    1       28.424 136.816  31.008  0.00  0.00    +0.210 HD
ENDBRANCH   5   6
BRANCH   4   8
ATOM      8  O   LIG    1       29.360 139.441  29.276  0.00  0.00    -0.386 OA
ATOM      9  H   LIG    1       28.511 139.361  28.808  0.00  0.00    +0.210 HD
ENDBRANCH   4   8
BRANCH   3  10
ATOM     10  O   LIG    1       31.373 139.368  27.127  0.00  0.00    -0.384 OA
ATOM     11  H   LIG    1       32.266 139.015  27.284  0.00  0.00    +0.210 HD
ENDBRANCH   3  10
BRANCH   2  12
ATOM     12  O   LIG    1       31.110 137.059  25.512  0.00  0.00    -0.348 OA
BRANCH  12  13
ATOM     13  C   LIG    1       32.300 136.438  25.051  0.00  0.00    +0.168 C 
BRANCH  13  14
ATOM     14  C   LIG    1       32.726 137.059  23.726  0.00  0.00    +0.063 C 
BRANCH  14  15
ATOM     15  C   LIG    1       33.917 137.973  23.877  0.00  0.00    -0.045 A 
ATOM     16  C   LIG    1       34.897 137.979  22.897  0.00  0.00    +0.007 A 
ATOM     17  C   LIG    1       35.999 138.824  23.036  0.00  0.00    +0.045 A 
ATOM     18  C   LIG    1       36.105 139.652  24.152  0.00  0.00    +0.117 A 
ATOM     19  C   LIG    1       35.111 139.635  25.131  0.00  0.00    +0.045 A 
ATOM     22  C   LIG    1       34.010 138.790  24.992  0.00  0.00    +0.007 A 
BRANCH  18  20
ATOM     20  O   LIG    1       37.179 140.477  24.289  0.00  0.00    -0.507 OA
ATOM     21  H   LIG    1       37.446 140.796  23.410  0.00  0.00    +0.292 HD
ENDBRANCH  18  20
ENDBRANCH  14  15
ENDBRANCH  13  14
ENDBRANCH  12  13
ENDBRANCH   2  12
BRANCH  23  24
ATOM     24  C   LIG    1       29.240 134.541  29.024  0.00  0.00    +0.190 C 
BRANCH  24  25
ATOM     25  O   LIG    1       27.978 134.924  29.538  0.00  0.00    -0.392 OA
ATOM     26  H   LIG    1       27.387 134.155  29.472  0.00  0.00    +0.210 HD
ENDBRANCH  24  25
ENDBRANCH  23  24
TORSDOF 10
ENDMDL
MODEL 7
REMARK VINA RESULT:      -5.6     29.011     30.896
REMARK  Name = 159278
REMARK                            x       y       z     vdW  Elec       q    Type
REMARK                         _______ _______ _______ _____ _____    ______ ____
ROOT
ATOM      1  O   LIG    1       35.891 155.622  44.585  0.00  0.00    -0.341 OA
ATOM      2  C   LIG    1       36.890 156.426  45.210  0.00  0.00    +0.282 C 
ATOM      3  C   LIG    1       37.325 155.802  46.536  0.00  0.00    +0.201 C 
ATOM      4  C   LIG    1       37.765 154.349  46.350  0.00  0.00    +0.179 C 
ATOM      5  C   LIG    1       36.738 153.561  45.536  0.00  0.00    +0.177 C 
ATOM     23  C   LIG    1       36.364 154.315  44.258  0.00  0.00    +0.178 C 
ENDROOT
BRANCH   5   6
ATOM      6  O   LIG    1       37.286 152.291  45.190  0.00  0.00    -0.386 OA
ATOM      7  H   LIG    1       37.869 152.414  44.421  0.00  0.00    +0.210 HD
ENDBRANCH   5   6
BRANCH   4   8
ATOM      8  O   LIG    1       37.890 153.723  47.627  0.00  0.00    -0.386 OA
ATOM      9  H   LIG    1       37.021 153.769  48.061  0.00  0.00    +0.210 HD
ENDBRANCH   4   8
BRANCH   3  10
ATOM     10  O   LIG    1       38.417 156.564  47.052  0.00  0.00    -0.384 OA
ATOM     11  H   LIG    1       38.661 156.193  47.917  0.00  0.00    +0.210 HD
ENDBRANCH   3  10
BRANCH   2  12
ATOM     12  O   LIG    1       36.363 157.722  45.487  0.00  0.00    -0.348 OA
BRANCH  12  13
ATOM     13  C   LIG    1       34.950 157.686  45.627  0.00  0.00    +0.168 C 
BRANCH  13  14
ATOM     14  C   LIG    1       34.543 158.375  46.925  0.00  0.00    +0.063 C 
BRANCH  14  15
ATOM     15  C   LIG    1       33.094 158.134  47.272  0.00  0.00    -0.045 A 
ATOM     16  C   LIG    1       32.754 157.032  48.040  0.00  0.00    +0.007 A 
ATOM     17  C   LIG    1       31.415 156.809  48.361  0.00  0.00    +0.045 A 
ATOM     18  C   LIG    1       30.434 157.692  47.910  0.00  0.00    +0.117 A 
ATOM     19  C   LIG    1       30.792 158.797  47.137  0.00  0.00    +0.045 A 
ATOM     22  C   LIG    1       32.131 159.019  46.817  0.00  0.00    +0.007 A 
BRANCH  18  20
ATOM     20  O   LIG    1       29.127 157.475  48.223  0.00  0.00    -0.507 OA
ATOM     21  H   LIG    1       28.583 158.156  47.792  0.00  0.00    +0.292 HD
ENDBRANCH  18  20
ENDBRANCH  14  15
ENDBRANCH  13  14
ENDBRANCH  12  13
ENDBRANCH   2  12
BRANCH  23  24
ATOM     24  C   LIG    1       35.255 153.605  43.488  0.00  0.00    +0.190 C 
BRANCH  24  25
ATOM     25  O   LIG    1       35.682 153.420  42.151  0.00  0.00    -0.392 OA
ATOM     26  H   LIG    1       35.631 154.282  41.704  0.00  0.00    +0.210 HD
ENDBRANCH  24  25
ENDBRANCH  23  24
TORSDOF 10
ENDMDL
MODEL 8
REMARK VINA RESULT:      -5.6     16.275     18.927
REMARK  Name = 159278
REMARK                            x       y       z     vdW  Elec       q    Type
REMARK                         _______ _______ _______ _____ _____    ______ ____
ROOT
ATOM      1  O   LIG    1       21.983 158.407  26.832  0.00  0.00    -0.341 OA
ATOM      2  C   LIG    1       21.392 158.647  25.556  0.00  0.00    +0.282 C 
ATOM      3  C   LIG    1       21.758 157.530  24.579  0.00  0.00    +0.201 C 
ATOM      4  C   LIG    1       21.402 156.155  25.146  0.00  0.00    +0.179 C 
ATOM      5  C   LIG    1       21.917 155.998  26.578  0.00  0.00    +0.177 C 
ATOM     23  C   LIG    1       21.515 157.200  27.435  0.00  0.00    +0.178 C 
ENDROOT
BRANCH   5   6
ATOM      6  O   LIG    1       21.372 154.810  27.146  0.00  0.00    -0.386 OA
ATOM      7  H   LIG    1       20.693 154.470  26.539  0.00  0.00    +0.210 HD
ENDBRANCH   5   6
BRANCH   4   8
ATOM      8  O   LIG    1       22.007 155.139  24.346  0.00  0.00    -0.386 OA
ATOM      9  H   LIG    1       22.957 155.132  24.552  0.00  0.00    +0.210 HD
ENDBRANCH   4   8
BRANCH   3  10
ATOM     10  O   LIG    1       21.035 157.742  23.366  0.00  0.00    -0.384 OA
ATOM     11  H   LIG    1       20.621 156.900  23.110  0.00  0.00    +0.210 HD
ENDBRANCH   3  10
BRANCH   2  12
ATOM     12  O   LIG    1       21.882 159.875  25.021  0.00  0.00    -0.348 OA
BRANCH  12  13
ATOM     13  C   LIG    1       21.691 160.948  25.932  0.00  0.00    +0.168 C 
BRANCH  13  14
ATOM     14  C   LIG    1       21.482 162.247  25.163  0.00  0.00    +0.063 C 
BRANCH  14  15
ATOM     15  C   LIG    1       22.731 163.092  25.113  0.00  0.00    -0.045 A 
ATOM     16  C   LIG    1       23.546 163.165  26.232  0.00  0.00    +0.007 A 
ATOM     17  C   LIG    1       24.701 163.945  26.188  0.00  0.00    +0.045 A 
ATOM     18  C   LIG    1       25.026 164.642  25.025  0.00  0.00    +0.117 A 
ATOM     19  C   LIG    1       24.197 164.560  23.906  0.00  0.00    +0.045 A 
ATOM     22  C   LIG    1       23.042 163.779  23.952  0.00  0.00    +0.007 A 
BRANCH  18  20
ATOM     20  O   LIG    1       26.153 165.405  24.981  0.00  0.00    -0.507 OA
ATOM     21  H   LIG    1       26.528 165.362  24.084  0.00  0.00    +0.292 HD
ENDBRANCH  18  20
ENDBRANCH  14  15
ENDBRANCH  13  14
ENDBRANCH  12  13
ENDBRANCH   2  12
BRANCH  23  24
ATOM     24  C   LIG    1       22.116 157.123  28.834  0.00  0.00    +0.190 C 
BRANCH  24  25
ATOM     25  O   LIG    1       23.315 156.374  28.770  0.00  0.00    -0.392 OA
ATOM     26  H   LIG    1       23.276 155.823  27.969  0.00  0.00    +0.210 HD
ENDBRANCH  24  25
ENDBRANCH  23  24
TORSDOF 10
ENDMDL
MODEL 9
REMARK VINA RESULT:      -5.5      4.839      6.695
REMARK  Name = 159278
REMARK                            x       y       z     vdW  Elec       q    Type
REMARK                         _______ _______ _______ _____ _____    ______ ____
ROOT
ATOM      1  O   LIG    1        9.679 148.147  29.783  0.00  0.00    -0.341 OA
ATOM      2  C   LIG    1        8.490 147.383  29.590  0.00  0.00    +0.282 C 
ATOM      3  C   LIG    1        8.318 147.026  28.114  0.00  0.00    +0.201 C 
ATOM      4  C   LIG    1        9.564 146.333  27.559  0.00  0.00    +0.179 C 
ATOM      5  C   LIG    1       10.833 147.102  27.926  0.00  0.00    +0.177 C 
ATOM     23  C   LIG    1       10.859 147.428  29.421  0.00  0.00    +0.178 C 
ENDROOT
BRANCH   5   6
ATOM      6  O   LIG    1       11.973 146.313  27.597  0.00  0.00    -0.386 OA
ATOM      7  H   LIG    1       12.167 145.734  28.353  0.00  0.00    +0.210 HD
ENDBRANCH   5   6
BRANCH   4   8
ATOM      8  O   LIG    1        9.480 146.272  26.135  0.00  0.00    -0.386 OA
ATOM      9  H   LIG    1       10.325 145.918  25.809  0.00  0.00    +0.210 HD
ENDBRANCH   4   8
BRANCH   3  10
ATOM     10  O   LIG    1        7.197 146.150  27.993  0.00  0.00    -0.384 OA
ATOM     11  H   LIG    1        6.805 146.280  27.113  0.00  0.00    +0.210 HD
ENDBRANCH   3  10
BRANCH   2  12
ATOM     12  O   LIG    1        7.355 148.147  29.992  0.00  0.00    -0.348 OA
BRANCH  12  13
ATOM     13  C   LIG    1        7.426 149.476  29.497  0.00  0.00    +0.168 C 
BRANCH  13  14
ATOM     14  C   LIG    1        7.082 150.459  30.610  0.00  0.00    +0.063 C 
BRANCH  14  15
ATOM     15  C   LIG    1        7.095 151.892  30.134  0.00  0.00    -0.045 A 
ATOM     16  C   LIG    1        8.184 152.696  30.430  0.00  0.00    +0.007 A 
ATOM     17  C   LIG    1        8.197 154.020  29.991  0.00  0.00    +0.045 A 
ATOM     18  C   LIG    1        7.121 154.522  29.260  0.00  0.00    +0.117 A 
ATOM     19  C   LIG    1        6.031 153.700  28.970  0.00  0.00    +0.045 A 
ATOM     22  C   LIG    1        6.019 152.377  29.409  0.00  0.00    +0.007 A 
BRANCH  18  20
ATOM     20  O   LIG    1        7.132 155.813  28.831  0.00  0.00    -0.507 OA
ATOM     21  H   LIG    1        6.815 156.387  29.550  0.00  0.00    +0.292 HD
ENDBRANCH  18  20
ENDBRANCH  14  15
ENDBRANCH  13  14
ENDBRANCH  12  13
ENDBRANCH   2  12
BRANCH  23  24
ATOM     24  C   LIG    1       12.057 148.295  29.790  0.00  0.00    +0.190 C 
BRANCH  24  25
ATOM     25  O   LIG    1       13.150 147.450  30.097  0.00  0.00    -0.392 OA
ATOM     26  H   LIG    1       13.687 147.360  29.292  0.00  0.00    +0.210 HD
ENDBRANCH  24  25
ENDBRANCH  23  24
TORSDOF 10
ENDMDL
