MODEL 1
REMARK VINA RESULT:      -7.8      0.000      0.000
REMARK  Name = 41774
REMARK                            x       y       z     vdW  Elec       q    Type
REMARK                         _______ _______ _______ _____ _____    ______ ____
ROOT
ATOM      1  O   LIG    1       17.913 164.804  18.674  0.00  0.00    -0.340 OA
ENDROOT
BRANCH   1   2
ATOM      2  C   LIG    1       18.225 166.109  19.157  0.00  0.00    +0.282 C 
ATOM      3  C   LIG    1       19.258 166.739  18.221  0.00  0.00    +0.200 C 
ATOM      4  C   LIG    1       19.696 168.114  18.733  0.00  0.00    +0.167 C 
ATOM      5  C   LIG    1       20.067 168.094  20.228  0.00  0.00    +0.114 C 
ATOM      6  C   LIG    1       19.055 167.300  21.083  0.00  0.00    +0.138 C 
ATOM      7  C   LIG    1       17.789 168.090  21.420  0.00  0.00    +0.039 C 
ATOM     29  O   LIG    1       18.729 166.037  20.490  0.00  0.00    -0.344 OA
BRANCH   5   8
ATOM      8  N   LIG    1       21.395 167.487  20.390  0.00  0.00    -0.300 NA
ATOM      9  H   LIG    1       22.106 168.090  19.978  0.00  0.00    +0.123 HD
BRANCH   8  10
ATOM     10  C   LIG    1       21.683 167.245  21.807  0.00  0.00    +0.109 C 
ATOM     11  C   LIG    1       22.458 165.968  21.999  0.00  0.00    -0.002 C 
ATOM     12  C   LIG    1       23.457 165.823  22.890  0.00  0.00    -0.016 C 
ATOM     16  C   LIG    1       23.882 166.940  23.818  0.00  0.00    +0.173 C 
ATOM     17  C   LIG    1       22.919 168.141  23.838  0.00  0.00    +0.177 C 
ATOM     22  C   LIG    1       22.371 168.473  22.444  0.00  0.00    +0.166 C 
BRANCH  17  18
ATOM     18  O   LIG    1       21.837 167.837  24.717  0.00  0.00    -0.386 OA
ATOM     19  H   LIG    1       21.912 168.422  25.491  0.00  0.00    +0.210 HD
ENDBRANCH  17  18
BRANCH  16  20
ATOM     20  O   LIG    1       25.179 167.373  23.409  0.00  0.00    -0.385 OA
ATOM     21  H   LIG    1       25.285 167.135  22.472  0.00  0.00    +0.210 HD
ENDBRANCH  16  20
BRANCH  22  23
ATOM     23  O   LIG    1       23.430 168.962  21.622  0.00  0.00    -0.387 OA
ATOM     24  H   LIG    1       23.141 169.812  21.247  0.00  0.00    +0.210 HD
ENDBRANCH  22  23
BRANCH  12  13
ATOM     13  C   LIG    1       24.198 164.524  23.028  0.00  0.00    +0.189 C 
BRANCH  13  14
ATOM     14  O   LIG    1       25.591 164.763  22.962  0.00  0.00    -0.391 OA
ATOM     15  H   LIG    1       25.716 165.727  22.950  0.00  0.00    +0.210 HD
ENDBRANCH  13  14
ENDBRANCH  12  13
ENDBRANCH   8  10
ENDBRANCH   5   8
BRANCH   4  25
ATOM     25  O   LIG    1       18.628 169.035  18.513  0.00  0.00    -0.387 OA
ATOM     26  H   LIG    1       17.793 168.555  18.654  0.00  0.00    +0.210 HD
ENDBRANCH   4  25
BRANCH   3  27
ATOM     27  O   LIG    1       20.387 165.872  18.133  0.00  0.00    -0.384 OA
ATOM     28  H   LIG    1       20.812 165.856  19.008  0.00  0.00    +0.210 HD
ENDBRANCH   3  27
ENDBRANCH   1   2
BRANCH   1  30
ATOM     30  C   LIG    1       16.526 164.500  18.852  0.00  0.00    +0.183 C 
ATOM     31  C   LIG    1       16.292 163.040  18.425  0.00  0.00    +0.178 C 
ATOM     35  O   LIG    1       16.353 162.890  17.001  0.00  0.00    -0.341 OA
ATOM     36  C   LIG    1       15.456 163.724  16.270  0.00  0.00    +0.282 C 
ATOM     37  C   LIG    1       15.760 165.201  16.536  0.00  0.00    +0.201 C 
ATOM     56  C   LIG    1       15.719 165.515  18.032  0.00  0.00    +0.179 C 
BRANCH  37  38
ATOM     38  O   LIG    1       17.050 165.525  16.016  0.00  0.00    -0.384 OA
ATOM     39  H   LIG    1       17.252 164.884  15.313  0.00  0.00    +0.210 HD
ENDBRANCH  37  38
BRANCH  56  57
ATOM     57  O   LIG    1       14.360 165.514  18.457  0.00  0.00    -0.386 OA
ATOM     58  H   LIG    1       13.814 165.772  17.695  0.00  0.00    +0.210 HD
ENDBRANCH  56  57
BRANCH  31  32
ATOM     32  C   LIG    1       15.008 162.433  18.990  0.00  0.00    +0.190 C 
BRANCH  32  33
ATOM     33  O   LIG    1       15.231 161.057  19.234  0.00  0.00    -0.392 OA
ATOM     34  H   LIG    1       15.073 160.588  18.396  0.00  0.00    +0.210 HD
ENDBRANCH  32  33
ENDBRANCH  31  32
BRANCH  36  40
ATOM     40  O   LIG    1       15.583 163.482  14.870  0.00  0.00    -0.340 OA
BRANCH  40  41
ATOM     41  C   LIG    1       14.637 164.245  14.124  0.00  0.00    +0.183 C 
ATOM     42  C   LIG    1       13.366 163.422  13.875  0.00  0.00    +0.178 C 
ATOM     46  O   LIG    1       12.465 164.123  13.009  0.00  0.00    -0.341 OA
ATOM     47  C   LIG    1       13.023 164.410  11.726  0.00  0.00    +0.279 C 
ATOM     48  C   LIG    1       14.268 165.286  11.866  0.00  0.00    +0.201 C 
ATOM     53  C   LIG    1       15.296 164.659  12.807  0.00  0.00    +0.179 C 
BRANCH  48  49
ATOM     49  O   LIG    1       14.865 165.504  10.593  0.00  0.00    -0.384 OA
ATOM     50  H   LIG    1       15.646 164.928  10.532  0.00  0.00    +0.210 HD
ENDBRANCH  48  49
BRANCH  47  51
ATOM     51  O   LIG    1       13.268 163.227  10.966  0.00  0.00    -0.365 OA
ATOM     52  H   LIG    1       13.452 163.505  10.053  0.00  0.00    +0.213 HD
ENDBRANCH  47  51
BRANCH  53  54
ATOM     54  O   LIG    1       16.313 165.622  13.097  0.00  0.00    -0.386 OA
ATOM     55  H   LIG    1       16.881 165.709  12.313  0.00  0.00    +0.210 HD
ENDBRANCH  53  54
BRANCH  42  43
ATOM     43  C   LIG    1       12.608 163.132  15.168  0.00  0.00    +0.190 C 
BRANCH  43  44
ATOM     44  O   LIG    1       11.739 164.218  15.433  0.00  0.00    -0.392 OA
ATOM     45  H   LIG    1       10.831 163.898  15.294  0.00  0.00    +0.210 HD
ENDBRANCH  43  44
ENDBRANCH  42  43
ENDBRANCH  40  41
ENDBRANCH  36  40
ENDBRANCH   1  30
TORSDOF 22
ENDMDL
MODEL 2
REMARK VINA RESULT:      -7.7      9.463     15.730
REMARK  Name = 41774
REMARK                            x       y       z     vdW  Elec       q    Type
REMARK                         _______ _______ _______ _____ _____    ______ ____
ROOT
ATOM      1  O   LIG    1       21.634 157.473  27.107  0.00  0.00    -0.340 OA
ENDROOT
BRANCH   1   2
ATOM      2  C   LIG    1       20.962 158.622  26.595  0.00  0.00    +0.282 C 
ATOM      3  C   LIG    1       21.038 158.587  25.068  0.00  0.00    +0.200 C 
ATOM      4  C   LIG    1       20.402 159.840  24.458  0.00  0.00    +0.167 C 
ATOM      5  C   LIG    1       20.898 161.137  25.128  0.00  0.00    +0.114 C 
ATOM      6  C   LIG    1       20.944 161.032  26.668  0.00  0.00    +0.138 C 
ATOM      7  C   LIG    1       19.579 161.225  27.333  0.00  0.00    +0.039 C 
ATOM     29  O   LIG    1       21.559 159.814  27.104  0.00  0.00    -0.344 OA
BRANCH   5   8
ATOM      8  N   LIG    1       22.248 161.449  24.640  0.00  0.00    -0.300 NA
ATOM      9  H   LIG    1       22.405 160.999  23.739  0.00  0.00    +0.123 HD
BRANCH   8  10
ATOM     10  C   LIG    1       22.436 162.898  24.531  0.00  0.00    +0.109 C 
ATOM     11  C   LIG    1       23.330 163.419  25.626  0.00  0.00    -0.002 C 
ATOM     12  C   LIG    1       24.257 164.378  25.445  0.00  0.00    -0.016 C 
ATOM     16  C   LIG    1       24.470 165.056  24.109  0.00  0.00    +0.173 C 
ATOM     17  C   LIG    1       23.379 164.748  23.068  0.00  0.00    +0.177 C 
ATOM     22  C   LIG    1       22.921 163.285  23.117  0.00  0.00    +0.166 C 
BRANCH  17  18
ATOM     18  O   LIG    1       22.265 165.606  23.313  0.00  0.00    -0.386 OA
ATOM     19  H   LIG    1       21.670 165.146  23.930  0.00  0.00    +0.210 HD
ENDBRANCH  17  18
BRANCH  16  20
ATOM     20  O   LIG    1       25.740 164.640  23.610  0.00  0.00    -0.385 OA
ATOM     21  H   LIG    1       26.112 165.379  23.100  0.00  0.00    +0.210 HD
ENDBRANCH  16  20
BRANCH  22  23
ATOM     23  O   LIG    1       23.987 162.439  22.683  0.00  0.00    -0.387 OA
ATOM     24  H   LIG    1       24.167 161.804  23.397  0.00  0.00    +0.210 HD
ENDBRANCH  22  23
BRANCH  12  13
ATOM     13  C   LIG    1       25.125 164.849  26.577  0.00  0.00    +0.189 C 
BRANCH  13  14
ATOM     14  O   LIG    1       24.318 165.434  27.582  0.00  0.00    -0.391 OA
ATOM     15  H   LIG    1       23.454 164.990  27.551  0.00  0.00    +0.210 HD
ENDBRANCH  13  14
ENDBRANCH  12  13
ENDBRANCH   8  10
ENDBRANCH   5   8
BRANCH   4  25
ATOM     25  O   LIG    1       18.985 159.737  24.598  0.00  0.00    -0.387 OA
ATOM     26  H   LIG    1       18.756 158.791  24.569  0.00  0.00    +0.210 HD
ENDBRANCH   4  25
BRANCH   3  27
ATOM     27  O   LIG    1       22.408 158.500  24.678  0.00  0.00    -0.384 OA
ATOM     28  H   LIG    1       22.947 158.735  25.452  0.00  0.00    +0.210 HD
ENDBRANCH   3  27
ENDBRANCH   1   2
BRANCH   1  30
ATOM     30  C   LIG    1       21.117 157.093  28.386  0.00  0.00    +0.183 C 
ATOM     31  C   LIG    1       21.767 157.988  29.456  0.00  0.00    +0.178 C 
ATOM     35  O   LIG    1       23.139 157.637  29.677  0.00  0.00    -0.341 OA
ATOM     36  C   LIG    1       23.361 156.274  30.033  0.00  0.00    +0.282 C 
ATOM     37  C   LIG    1       22.878 155.342  28.917  0.00  0.00    +0.201 C 
ATOM     56  C   LIG    1       21.408 155.599  28.579  0.00  0.00    +0.179 C 
BRANCH  37  38
ATOM     38  O   LIG    1       23.677 155.539  27.751  0.00  0.00    -0.384 OA
ATOM     39  H   LIG    1       23.210 155.127  27.004  0.00  0.00    +0.210 HD
ENDBRANCH  37  38
BRANCH  56  57
ATOM     57  O   LIG    1       20.604 155.078  29.632  0.00  0.00    -0.386 OA
ATOM     58  H   LIG    1       21.081 155.226  30.466  0.00  0.00    +0.210 HD
ENDBRANCH  56  57
BRANCH  31  32
ATOM     32  C   LIG    1       20.991 158.036  30.772  0.00  0.00    +0.190 C 
BRANCH  32  33
ATOM     33  O   LIG    1       19.621 157.811  30.493  0.00  0.00    -0.392 OA
ATOM     34  H   LIG    1       19.156 158.651  30.647  0.00  0.00    +0.210 HD
ENDBRANCH  32  33
ENDBRANCH  31  32
BRANCH  36  40
ATOM     40  O   LIG    1       24.750 156.036  30.249  0.00  0.00    -0.340 OA
BRANCH  40  41
ATOM     41  C   LIG    1       25.120 156.307  31.599  0.00  0.00    +0.183 C 
ATOM     42  C   LIG    1       26.542 155.802  31.874  0.00  0.00    +0.178 C 
ATOM     46  O   LIG    1       26.874 155.941  33.260  0.00  0.00    -0.341 OA
ATOM     47  C   LIG    1       26.007 155.207  34.125  0.00  0.00    +0.279 C 
ATOM     48  C   LIG    1       24.563 155.685  33.970  0.00  0.00    +0.201 C 
ATOM     53  C   LIG    1       24.103 155.623  32.514  0.00  0.00    +0.179 C 
BRANCH  48  49
ATOM     49  O   LIG    1       23.692 154.899  34.774  0.00  0.00    -0.384 OA
ATOM     50  H   LIG    1       23.854 155.139  35.702  0.00  0.00    +0.210 HD
ENDBRANCH  48  49
BRANCH  47  51
ATOM     51  O   LIG    1       26.138 153.797  33.953  0.00  0.00    -0.365 OA
ATOM     52  H   LIG    1       26.832 153.495  34.564  0.00  0.00    +0.213 HD
ENDBRANCH  47  51
BRANCH  53  54
ATOM     54  O   LIG    1       22.854 156.310  32.390  0.00  0.00    -0.386 OA
ATOM     55  H   LIG    1       22.142 155.648  32.389  0.00  0.00    +0.210 HD
ENDBRANCH  53  54
BRANCH  42  43
ATOM     43  C   LIG    1       27.591 156.581  31.083  0.00  0.00    +0.190 C 
BRANCH  43  44
ATOM     44  O   LIG    1       28.702 156.821  31.926  0.00  0.00    -0.392 OA
ATOM     45  H   LIG    1       28.500 156.419  32.789  0.00  0.00    +0.210 HD
ENDBRANCH  43  44
ENDBRANCH  42  43
ENDBRANCH  40  41
ENDBRANCH  36  40
ENDBRANCH   1  30
TORSDOF 22
ENDMDL
MODEL 3
REMARK VINA RESULT:      -7.4     29.463     33.369
REMARK  Name = 41774
REMARK                            x       y       z     vdW  Elec       q    Type
REMARK                         _______ _______ _______ _____ _____    ______ ____
ROOT
ATOM      1  O   LIG    1       32.686 136.323  22.794  0.00  0.00    -0.340 OA
ENDROOT
BRANCH   1   2
ATOM      2  C   LIG    1       33.312 136.069  21.538  0.00  0.00    +0.282 C 
ATOM      3  C   LIG    1       34.378 137.141  21.302  0.00  0.00    +0.200 C 
ATOM      4  C   LIG    1       35.033 136.971  19.929  0.00  0.00    +0.167 C 
ATOM      5  C   LIG    1       33.998 136.791  18.801  0.00  0.00    +0.114 C 
ATOM      6  C   LIG    1       32.866 135.812  19.182  0.00  0.00    +0.138 C 
ATOM      7  C   LIG    1       33.259 134.340  19.040  0.00  0.00    +0.039 C 
ATOM     29  O   LIG    1       32.344 136.079  20.490  0.00  0.00    -0.344 OA
BRANCH   5   8
ATOM      8  N   LIG    1       33.402 138.094  18.478  0.00  0.00    -0.300 NA
ATOM      9  H   LIG    1       33.693 138.789  19.164  0.00  0.00    +0.123 HD
BRANCH   8  10
ATOM     10  C   LIG    1       33.780 138.514  17.126  0.00  0.00    +0.109 C 
ATOM     11  C   LIG    1       32.650 138.308  16.152  0.00  0.00    -0.002 C 
ATOM     12  C   LIG    1       32.346 139.168  15.162  0.00  0.00    -0.016 C 
ATOM     16  C   LIG    1       33.143 140.430  14.914  0.00  0.00    +0.173 C 
ATOM     17  C   LIG    1       34.462 140.506  15.704  0.00  0.00    +0.177 C 
ATOM     22  C   LIG    1       34.319 139.961  17.131  0.00  0.00    +0.166 C 
BRANCH  17  18
ATOM     18  O   LIG    1       35.452 139.755  15.003  0.00  0.00    -0.386 OA
ATOM     19  H   LIG    1       35.132 139.622  14.094  0.00  0.00    +0.210 HD
ENDBRANCH  17  18
BRANCH  16  20
ATOM     20  O   LIG    1       32.314 141.540  15.257  0.00  0.00    -0.385 OA
ATOM     21  H   LIG    1       31.710 141.697  14.512  0.00  0.00    +0.210 HD
ENDBRANCH  16  20
BRANCH  22  23
ATOM     23  O   LIG    1       33.475 140.829  17.888  0.00  0.00    -0.387 OA
ATOM     24  H   LIG    1       32.594 140.418  17.930  0.00  0.00    +0.210 HD
ENDBRANCH  22  23
BRANCH  12  13
ATOM     13  C   LIG    1       31.200 138.909  14.227  0.00  0.00    +0.189 C 
BRANCH  13  14
ATOM     14  O   LIG    1       30.339 140.032  14.209  0.00  0.00    -0.391 OA
ATOM     15  H   LIG    1       30.620 140.621  14.931  0.00  0.00    +0.210 HD
ENDBRANCH  13  14
ENDBRANCH  12  13
ENDBRANCH   8  10
ENDBRANCH   5   8
BRANCH   4  25
ATOM     25  O   LIG    1       35.893 135.832  19.981  0.00  0.00    -0.387 OA
ATOM     26  H   LIG    1       36.661 136.070  20.529  0.00  0.00    +0.210 HD
ENDBRANCH   4  25
BRANCH   3  27
ATOM     27  O   LIG    1       33.764 138.426  21.390  0.00  0.00    -0.384 OA
ATOM     28  H   LIG    1       34.365 139.003  21.891  0.00  0.00    +0.210 HD
ENDBRANCH   3  27
ENDBRANCH   1   2
BRANCH   1  30
ATOM     30  C   LIG    1       32.179 135.118  23.377  0.00  0.00    +0.183 C 
ATOM     31  C   LIG    1       30.803 135.421  23.996  0.00  0.00    +0.178 C 
ATOM     35  O   LIG    1       30.923 136.195  25.196  0.00  0.00    -0.341 OA
ATOM     36  C   LIG    1       31.753 135.620  26.202  0.00  0.00    +0.282 C 
ATOM     37  C   LIG    1       33.184 135.451  25.684  0.00  0.00    +0.201 C 
ATOM     56  C   LIG    1       33.214 134.626  24.396  0.00  0.00    +0.179 C 
BRANCH  37  38
ATOM     38  O   LIG    1       33.760 136.735  25.441  0.00  0.00    -0.384 OA
ATOM     39  H   LIG    1       34.445 136.881  26.114  0.00  0.00    +0.210 HD
ENDBRANCH  37  38
BRANCH  56  57
ATOM     57  O   LIG    1       32.963 133.264  24.727  0.00  0.00    -0.386 OA
ATOM     58  H   LIG    1       33.195 133.141  25.663  0.00  0.00    +0.210 HD
ENDBRANCH  56  57
BRANCH  31  32
ATOM     32  C   LIG    1       29.945 134.178  24.224  0.00  0.00    +0.190 C 
BRANCH  32  33
ATOM     33  O   LIG    1       30.448 133.130  23.416  0.00  0.00    -0.392 OA
ATOM     34  H   LIG    1       30.130 132.294  23.799  0.00  0.00    +0.210 HD
ENDBRANCH  32  33
ENDBRANCH  31  32
BRANCH  36  40
ATOM     40  O   LIG    1       31.787 136.456  27.357  0.00  0.00    -0.340 OA
BRANCH  40  41
ATOM     41  C   LIG    1       30.473 136.819  27.774  0.00  0.00    +0.183 C 
ATOM     42  C   LIG    1       30.418 138.312  28.125  0.00  0.00    +0.178 C 
ATOM     46  O   LIG    1       29.144 138.660  28.677  0.00  0.00    -0.341 OA
ATOM     47  C   LIG    1       28.834 137.949  29.877  0.00  0.00    +0.279 C 
ATOM     48  C   LIG    1       28.803 136.443  29.614  0.00  0.00    +0.201 C 
ATOM     53  C   LIG    1       30.104 135.954  28.980  0.00  0.00    +0.179 C 
BRANCH  48  49
ATOM     49  O   LIG    1       28.572 135.734  30.826  0.00  0.00    -0.384 OA
ATOM     50  H   LIG    1       28.013 134.968  30.616  0.00  0.00    +0.210 HD
ENDBRANCH  48  49
BRANCH  47  51
ATOM     51  O   LIG    1       29.704 138.299  30.952  0.00  0.00    -0.365 OA
ATOM     52  H   LIG    1       29.332 139.090  31.378  0.00  0.00    +0.213 HD
ENDBRANCH  47  51
BRANCH  53  54
ATOM     54  O   LIG    1       29.927 134.608  28.529  0.00  0.00    -0.386 OA
ATOM     55  H   LIG    1       30.298 134.536  27.634  0.00  0.00    +0.210 HD
ENDBRANCH  53  54
BRANCH  42  43
ATOM     43  C   LIG    1       30.630 139.197  26.899  0.00  0.00    +0.190 C 
BRANCH  43  44
ATOM     44  O   LIG    1       31.938 138.975  26.405  0.00  0.00    -0.392 OA
ATOM     45  H   LIG    1       32.509 139.666  26.783  0.00  0.00    +0.210 HD
ENDBRANCH  43  44
ENDBRANCH  42  43
ENDBRANCH  40  41
ENDBRANCH  36  40
ENDBRANCH   1  30
TORSDOF 22
ENDMDL
MODEL 4
REMARK VINA RESULT:      -7.4      4.894      6.251
REMARK  Name = 41774
REMARK                            x       y       z     vdW  Elec       q    Type
REMARK                         _______ _______ _______ _____ _____    ______ ____
ROOT
ATOM      1  O   LIG    1       19.685 163.118  20.366  0.00  0.00    -0.340 OA
ENDROOT
BRANCH   1   2
ATOM      2  C   LIG    1       19.907 163.087  21.774  0.00  0.00    +0.282 C 
ATOM      3  C   LIG    1       21.389 162.802  22.025  0.00  0.00    +0.200 C 
ATOM      4  C   LIG    1       21.677 162.674  23.524  0.00  0.00    +0.167 C 
ATOM      5  C   LIG    1       20.681 161.740  24.237  0.00  0.00    +0.114 C 
ATOM      6  C   LIG    1       19.219 161.986  23.807  0.00  0.00    +0.138 C 
ATOM      7  C   LIG    1       18.573 163.186  24.503  0.00  0.00    +0.039 C 
ATOM     29  O   LIG    1       19.090 162.088  22.383  0.00  0.00    -0.344 OA
BRANCH   5   8
ATOM      8  N   LIG    1       21.028 160.343  23.939  0.00  0.00    -0.300 NA
ATOM      9  H   LIG    1       22.035 160.255  23.809  0.00  0.00    +0.123 HD
BRANCH   8  10
ATOM     10  C   LIG    1       20.568 159.457  25.011  0.00  0.00    +0.109 C 
ATOM     11  C   LIG    1       20.994 158.033  24.767  0.00  0.00    -0.002 C 
ATOM     12  C   LIG    1       21.415 157.199  25.736  0.00  0.00    -0.016 C 
ATOM     16  C   LIG    1       21.473 157.612  27.191  0.00  0.00    +0.173 C 
ATOM     17  C   LIG    1       20.770 158.949  27.492  0.00  0.00    +0.177 C 
ATOM     22  C   LIG    1       21.005 159.992  26.392  0.00  0.00    +0.166 C 
BRANCH  17  18
ATOM     18  O   LIG    1       19.371 158.703  27.628  0.00  0.00    -0.386 OA
ATOM     19  H   LIG    1       19.231 158.261  28.483  0.00  0.00    +0.210 HD
ENDBRANCH  17  18
BRANCH  16  20
ATOM     20  O   LIG    1       22.847 157.699  27.563  0.00  0.00    -0.385 OA
ATOM     21  H   LIG    1       23.186 156.791  27.650  0.00  0.00    +0.210 HD
ENDBRANCH  16  20
BRANCH  22  23
ATOM     23  O   LIG    1       22.379 160.378  26.390  0.00  0.00    -0.387 OA
ATOM     24  H   LIG    1       22.530 160.922  25.597  0.00  0.00    +0.210 HD
ENDBRANCH  22  23
BRANCH  12  13
ATOM     13  C   LIG    1       21.836 155.791  25.426  0.00  0.00    +0.189 C 
BRANCH  13  14
ATOM     14  O   LIG    1       20.996 155.254  24.423  0.00  0.00    -0.391 OA
ATOM     15  H   LIG    1       20.300 154.745  24.873  0.00  0.00    +0.210 HD
ENDBRANCH  13  14
ENDBRANCH  12  13
ENDBRANCH   8  10
ENDBRANCH   5   8
BRANCH   4  25
ATOM     25  O   LIG    1       21.616 163.978  24.104  0.00  0.00    -0.387 OA
ATOM     26  H   LIG    1       22.287 164.016  24.808  0.00  0.00    +0.210 HD
ENDBRANCH   4  25
BRANCH   3  27
ATOM     27  O   LIG    1       21.742 161.590  21.359  0.00  0.00    -0.384 OA
ATOM     28  H   LIG    1       22.578 161.277  21.745  0.00  0.00    +0.210 HD
ENDBRANCH   3  27
ENDBRANCH   1   2
BRANCH   1  30
ATOM     30  C   LIG    1       19.225 164.405  19.939  0.00  0.00    +0.183 C 
ATOM     31  C   LIG    1       17.710 164.487  20.194  0.00  0.00    +0.178 C 
ATOM     35  O   LIG    1       16.973 163.687  19.262  0.00  0.00    -0.341 OA
ATOM     36  C   LIG    1       17.216 163.986  17.889  0.00  0.00    +0.282 C 
ATOM     37  C   LIG    1       18.690 163.756  17.543  0.00  0.00    +0.201 C 
ATOM     56  C   LIG    1       19.607 164.566  18.462  0.00  0.00    +0.179 C 
BRANCH  37  38
ATOM     38  O   LIG    1       19.000 162.368  17.665  0.00  0.00    -0.384 OA
ATOM     39  H   LIG    1       19.965 162.290  17.754  0.00  0.00    +0.210 HD
ENDBRANCH  37  38
BRANCH  56  57
ATOM     57  O   LIG    1       19.527 165.937  18.085  0.00  0.00    -0.386 OA
ATOM     58  H   LIG    1       18.586 166.173  18.034  0.00  0.00    +0.210 HD
ENDBRANCH  56  57
BRANCH  31  32
ATOM     32  C   LIG    1       17.172 165.917  20.241  0.00  0.00    +0.190 C 
BRANCH  32  33
ATOM     33  O   LIG    1       15.864 165.887  20.782  0.00  0.00    -0.392 OA
ATOM     34  H   LIG    1       15.951 165.969  21.747  0.00  0.00    +0.210 HD
ENDBRANCH  32  33
ENDBRANCH  31  32
BRANCH  36  40
ATOM     40  O   LIG    1       16.421 163.150  17.050  0.00  0.00    -0.340 OA
BRANCH  40  41
ATOM     41  C   LIG    1       15.296 163.855  16.532  0.00  0.00    +0.183 C 
ATOM     42  C   LIG    1       13.992 163.173  16.968  0.00  0.00    +0.178 C 
ATOM     46  O   LIG    1       12.860 163.787  16.341  0.00  0.00    -0.341 OA
ATOM     47  C   LIG    1       12.898 163.718  14.915  0.00  0.00    +0.279 C 
ATOM     48  C   LIG    1       14.139 164.432  14.376  0.00  0.00    +0.201 C 
ATOM     53  C   LIG    1       15.419 163.888  15.007  0.00  0.00    +0.179 C 
BRANCH  48  49
ATOM     49  O   LIG    1       14.214 164.293  12.962  0.00  0.00    -0.384 OA
ATOM     50  H   LIG    1       14.028 163.363  12.748  0.00  0.00    +0.210 HD
ENDBRANCH  48  49
BRANCH  47  51
ATOM     51  O   LIG    1       12.784 162.380  14.435  0.00  0.00    -0.365 OA
ATOM     52  H   LIG    1       11.842 162.140  14.470  0.00  0.00    +0.213 HD
ENDBRANCH  47  51
BRANCH  53  54
ATOM     54  O   LIG    1       16.510 164.748  14.664  0.00  0.00    -0.386 OA
ATOM     55  H   LIG    1       16.172 165.453  14.087  0.00  0.00    +0.210 HD
ENDBRANCH  53  54
BRANCH  42  43
ATOM     43  C   LIG    1       13.773 163.267  18.476  0.00  0.00    +0.190 C 
BRANCH  43  44
ATOM     44  O   LIG    1       14.124 164.571  18.901  0.00  0.00    -0.392 OA
ATOM     45  H   LIG    1       15.028 164.742  18.583  0.00  0.00    +0.210 HD
ENDBRANCH  43  44
ENDBRANCH  42  43
ENDBRANCH  40  41
ENDBRANCH  36  40
ENDBRANCH   1  30
TORSDOF 22
ENDMDL
MODEL 5
REMARK VINA RESULT:      -7.4      2.873      6.138
REMARK  Name = 41774
REMARK                            x       y       z     vdW  Elec       q    Type
REMARK                         _______ _______ _______ _____ _____    ______ ____
ROOT
ATOM      1  O   LIG    1       17.889 165.043  18.493  0.00  0.00    -0.340 OA
ENDROOT
BRANCH   1   2
ATOM      2  C   LIG    1       18.180 166.333  19.026  0.00  0.00    +0.282 C 
ATOM      3  C   LIG    1       19.200 167.016  18.113  0.00  0.00    +0.200 C 
ATOM      4  C   LIG    1       19.617 168.378  18.676  0.00  0.00    +0.167 C 
ATOM      5  C   LIG    1       19.992 168.306  20.169  0.00  0.00    +0.114 C 
ATOM      6  C   LIG    1       18.995 167.463  20.994  0.00  0.00    +0.138 C 
ATOM      7  C   LIG    1       17.717 168.218  21.364  0.00  0.00    +0.039 C 
ATOM     29  O   LIG    1       18.688 166.218  20.354  0.00  0.00    -0.344 OA
BRANCH   5   8
ATOM      8  N   LIG    1       21.330 167.716  20.306  0.00  0.00    -0.300 NA
ATOM      9  H   LIG    1       22.032 168.354  19.934  0.00  0.00    +0.123 HD
BRANCH   8  10
ATOM     10  C   LIG    1       21.614 167.398  21.708  0.00  0.00    +0.109 C 
ATOM     11  C   LIG    1       22.349 166.090  21.837  0.00  0.00    -0.002 C 
ATOM     12  C   LIG    1       23.344 165.871  22.716  0.00  0.00    -0.016 C 
ATOM     16  C   LIG    1       23.807 166.929  23.694  0.00  0.00    +0.173 C 
ATOM     17  C   LIG    1       22.882 168.157  23.775  0.00  0.00    +0.177 C 
ATOM     22  C   LIG    1       22.341 168.572  22.400  0.00  0.00    +0.166 C 
BRANCH  17  18
ATOM     18  O   LIG    1       21.794 167.846  24.643  0.00  0.00    -0.386 OA
ATOM     19  H   LIG    1       22.138 167.281  25.356  0.00  0.00    +0.210 HD
ENDBRANCH  17  18
BRANCH  16  20
ATOM     20  O   LIG    1       25.116 167.340  23.300  0.00  0.00    -0.385 OA
ATOM     21  H   LIG    1       25.238 168.257  23.600  0.00  0.00    +0.210 HD
ENDBRANCH  16  20
BRANCH  22  23
ATOM     23  O   LIG    1       23.413 169.067  21.598  0.00  0.00    -0.387 OA
ATOM     24  H   LIG    1       23.029 169.662  20.931  0.00  0.00    +0.210 HD
ENDBRANCH  22  23
BRANCH  12  13
ATOM     13  C   LIG    1       24.045 164.545  22.789  0.00  0.00    +0.189 C 
BRANCH  13  14
ATOM     14  O   LIG    1       24.796 164.470  23.986  0.00  0.00    -0.391 OA
ATOM     15  H   LIG    1       24.444 163.723  24.500  0.00  0.00    +0.210 HD
ENDBRANCH  13  14
ENDBRANCH  12  13
ENDBRANCH   8  10
ENDBRANCH   5   8
BRANCH   4  25
ATOM     25  O   LIG    1       18.533 169.289  18.494  0.00  0.00    -0.387 OA
ATOM     26  H   LIG    1       18.772 169.884  17.762  0.00  0.00    +0.210 HD
ENDBRANCH   4  25
BRANCH   3  27
ATOM     27  O   LIG    1       20.344 166.172  17.990  0.00  0.00    -0.384 OA
ATOM     28  H   LIG    1       20.970 166.423  18.690  0.00  0.00    +0.210 HD
ENDBRANCH   3  27
ENDBRANCH   1   2
BRANCH   1  30
ATOM     30  C   LIG    1       16.514 164.936  18.109  0.00  0.00    +0.183 C 
ATOM     31  C   LIG    1       15.649 165.526  19.237  0.00  0.00    +0.178 C 
ATOM     35  O   LIG    1       15.611 164.663  20.380  0.00  0.00    -0.341 OA
ATOM     36  C   LIG    1       15.164 163.335  20.116  0.00  0.00    +0.282 C 
ATOM     37  C   LIG    1       16.096 162.643  19.117  0.00  0.00    +0.201 C 
ATOM     56  C   LIG    1       16.226 163.455  17.827  0.00  0.00    +0.179 C 
BRANCH  37  38
ATOM     38  O   LIG    1       17.386 162.473  19.705  0.00  0.00    -0.384 OA
ATOM     39  H   LIG    1       18.018 162.992  19.180  0.00  0.00    +0.210 HD
ENDBRANCH  37  38
BRANCH  56  57
ATOM     57  O   LIG    1       15.015 163.327  17.088  0.00  0.00    -0.386 OA
ATOM     58  H   LIG    1       15.207 163.568  16.166  0.00  0.00    +0.210 HD
ENDBRANCH  56  57
BRANCH  31  32
ATOM     32  C   LIG    1       14.240 165.914  18.791  0.00  0.00    +0.190 C 
BRANCH  32  33
ATOM     33  O   LIG    1       14.282 166.259  17.418  0.00  0.00    -0.392 OA
ATOM     34  H   LIG    1       13.897 167.148  17.335  0.00  0.00    +0.210 HD
ENDBRANCH  32  33
ENDBRANCH  31  32
BRANCH  36  40
ATOM     40  O   LIG    1       15.144 162.568  21.319  0.00  0.00    -0.340 OA
BRANCH  40  41
ATOM     41  C   LIG    1       15.123 163.410  22.470  0.00  0.00    +0.183 C 
ATOM     42  C   LIG    1       16.167 162.940  23.492  0.00  0.00    +0.178 C 
ATOM     46  O   LIG    1       16.061 163.688  24.709  0.00  0.00    -0.341 OA
ATOM     47  C   LIG    1       14.787 163.562  25.342  0.00  0.00    +0.279 C 
ATOM     48  C   LIG    1       13.677 164.067  24.419  0.00  0.00    +0.201 C 
ATOM     53  C   LIG    1       13.712 163.368  23.061  0.00  0.00    +0.179 C 
BRANCH  48  49
ATOM     49  O   LIG    1       12.404 163.867  25.020  0.00  0.00    -0.384 OA
ATOM     50  H   LIG    1       11.786 163.604  24.318  0.00  0.00    +0.210 HD
ENDBRANCH  48  49
BRANCH  47  51
ATOM     51  O   LIG    1       14.547 162.237  25.813  0.00  0.00    -0.365 OA
ATOM     52  H   LIG    1       15.371 161.735  25.695  0.00  0.00    +0.213 HD
ENDBRANCH  47  51
BRANCH  53  54
ATOM     54  O   LIG    1       12.830 164.046  22.163  0.00  0.00    -0.386 OA
ATOM     55  H   LIG    1       13.261 164.097  21.293  0.00  0.00    +0.210 HD
ENDBRANCH  53  54
BRANCH  42  43
ATOM     43  C   LIG    1       17.593 163.121  22.979  0.00  0.00    +0.190 C 
BRANCH  43  44
ATOM     44  O   LIG    1       17.642 164.297  22.192  0.00  0.00    -0.392 OA
ATOM     45  H   LIG    1       16.740 164.660  22.163  0.00  0.00    +0.210 HD
ENDBRANCH  43  44
ENDBRANCH  42  43
ENDBRANCH  40  41
ENDBRANCH  36  40
ENDBRANCH   1  30
TORSDOF 22
ENDMDL
MODEL 6
REMARK VINA RESULT:      -7.3      2.868     11.342
REMARK  Name = 41774
REMARK                            x       y       z     vdW  Elec       q    Type
REMARK                         _______ _______ _______ _____ _____    ______ ____
ROOT
ATOM      1  O   LIG    1       18.935 163.359  20.792  0.00  0.00    -0.340 OA
ENDROOT
BRANCH   1   2
ATOM      2  C   LIG    1       18.931 163.796  19.434  0.00  0.00    +0.282 C 
ATOM      3  C   LIG    1       17.761 164.763  19.239  0.00  0.00    +0.200 C 
ATOM      4  C   LIG    1       17.653 165.207  17.778  0.00  0.00    +0.167 C 
ATOM      5  C   LIG    1       17.716 164.020  16.797  0.00  0.00    +0.114 C 
ATOM      6  C   LIG    1       18.823 163.005  17.158  0.00  0.00    +0.138 C 
ATOM      7  C   LIG    1       20.219 163.438  16.705  0.00  0.00    +0.039 C 
ATOM     29  O   LIG    1       18.815 162.679  18.553  0.00  0.00    -0.344 OA
BRANCH   5   8
ATOM      8  N   LIG    1       16.423 163.322  16.796  0.00  0.00    -0.300 NA
ATOM      9  H   LIG    1       16.135 163.122  17.753  0.00  0.00    +0.123 HD
BRANCH   8  10
ATOM     10  C   LIG    1       15.405 164.121  16.108  0.00  0.00    +0.109 C 
ATOM     11  C   LIG    1       15.123 163.581  14.731  0.00  0.00    -0.002 C 
ATOM     12  C   LIG    1       13.895 163.528  14.183  0.00  0.00    -0.016 C 
ATOM     16  C   LIG    1       12.665 164.040  14.900  0.00  0.00    +0.173 C 
ATOM     17  C   LIG    1       12.973 164.853  16.171  0.00  0.00    +0.177 C 
ATOM     22  C   LIG    1       14.136 164.259  16.977  0.00  0.00    +0.166 C 
BRANCH  17  18
ATOM     18  O   LIG    1       13.293 166.189  15.786  0.00  0.00    -0.386 OA
ATOM     19  H   LIG    1       12.495 166.731  15.912  0.00  0.00    +0.210 HD
ENDBRANCH  17  18
BRANCH  16  20
ATOM     20  O   LIG    1       11.858 162.913  15.237  0.00  0.00    -0.385 OA
ATOM     21  H   LIG    1       12.346 162.114  14.974  0.00  0.00    +0.210 HD
ENDBRANCH  16  20
BRANCH  22  23
ATOM     23  O   LIG    1       13.740 163.001  17.524  0.00  0.00    -0.387 OA
ATOM     24  H   LIG    1       13.172 162.561  16.868  0.00  0.00    +0.210 HD
ENDBRANCH  22  23
BRANCH  12  13
ATOM     13  C   LIG    1       13.678 162.969  12.805  0.00  0.00    +0.189 C 
BRANCH  13  14
ATOM     14  O   LIG    1       12.855 161.821  12.884  0.00  0.00    -0.391 OA
ATOM     15  H   LIG    1       13.400 161.100  13.244  0.00  0.00    +0.210 HD
ENDBRANCH  13  14
ENDBRANCH  12  13
ENDBRANCH   8  10
ENDBRANCH   5   8
BRANCH   4  25
ATOM     25  O   LIG    1       18.720 166.115  17.506  0.00  0.00    -0.387 OA
ATOM     26  H   LIG    1       19.036 165.933  16.603  0.00  0.00    +0.210 HD
ENDBRANCH   4  25
BRANCH   3  27
ATOM     27  O   LIG    1       16.556 164.112  19.639  0.00  0.00    -0.384 OA
ATOM     28  H   LIG    1       16.553 164.073  20.610  0.00  0.00    +0.210 HD
ENDBRANCH   3  27
ENDBRANCH   1   2
BRANCH   1  30
ATOM     30  C   LIG    1       19.238 164.434  21.685  0.00  0.00    +0.183 C 
ATOM     31  C   LIG    1       20.675 164.907  21.404  0.00  0.00    +0.178 C 
ATOM     35  O   LIG    1       21.644 163.965  21.882  0.00  0.00    -0.341 OA
ATOM     36  C   LIG    1       21.537 163.643  23.267  0.00  0.00    +0.282 C 
ATOM     37  C   LIG    1       20.175 163.012  23.567  0.00  0.00    +0.201 C 
ATOM     56  C   LIG    1       19.031 163.921  23.116  0.00  0.00    +0.179 C 
BRANCH  37  38
ATOM     38  O   LIG    1       20.074 161.753  22.901  0.00  0.00    -0.384 OA
ATOM     39  H   LIG    1       20.110 161.924  21.945  0.00  0.00    +0.210 HD
ENDBRANCH  37  38
BRANCH  56  57
ATOM     57  O   LIG    1       18.943 165.018  24.020  0.00  0.00    -0.386 OA
ATOM     58  H   LIG    1       18.897 165.832  23.490  0.00  0.00    +0.210 HD
ENDBRANCH  56  57
BRANCH  31  32
ATOM     32  C   LIG    1       20.971 166.314  21.922  0.00  0.00    +0.190 C 
BRANCH  32  33
ATOM     33  O   LIG    1       22.001 166.877  21.130  0.00  0.00    -0.392 OA
ATOM     34  H   LIG    1       22.513 167.471  21.706  0.00  0.00    +0.210 HD
ENDBRANCH  32  33
ENDBRANCH  31  32
BRANCH  36  40
ATOM     40  O   LIG    1       22.556 162.718  23.642  0.00  0.00    -0.340 OA
BRANCH  40  41
ATOM     41  C   LIG    1       23.588 163.357  24.389  0.00  0.00    +0.183 C 
ATOM     42  C   LIG    1       23.069 163.767  25.774  0.00  0.00    +0.178 C 
ATOM     46  O   LIG    1       24.050 164.532  26.481  0.00  0.00    -0.341 OA
ATOM     47  C   LIG    1       24.417 165.739  25.811  0.00  0.00    +0.279 C 
ATOM     48  C   LIG    1       25.009 165.430  24.436  0.00  0.00    +0.201 C 
ATOM     53  C   LIG    1       24.063 164.575  23.594  0.00  0.00    +0.179 C 
BRANCH  48  49
ATOM     49  O   LIG    1       25.299 166.637  23.740  0.00  0.00    -0.384 OA
ATOM     50  H   LIG    1       24.702 167.324  24.082  0.00  0.00    +0.210 HD
ENDBRANCH  48  49
BRANCH  47  51
ATOM     51  O   LIG    1       23.338 166.670  25.746  0.00  0.00    -0.365 OA
ATOM     52  H   LIG    1       22.580 166.265  26.201  0.00  0.00    +0.213 HD
ENDBRANCH  47  51
BRANCH  53  54
ATOM     54  O   LIG    1       24.761 164.110  22.435  0.00  0.00    -0.386 OA
ATOM     55  H   LIG    1       25.715 164.167  22.611  0.00  0.00    +0.210 HD
ENDBRANCH  53  54
BRANCH  42  43
ATOM     43  C   LIG    1       22.735 162.556  26.642  0.00  0.00    +0.190 C 
BRANCH  43  44
ATOM     44  O   LIG    1       23.267 161.399  26.023  0.00  0.00    -0.392 OA
ATOM     45  H   LIG    1       23.859 160.975  26.668  0.00  0.00    +0.210 HD
ENDBRANCH  43  44
ENDBRANCH  42  43
ENDBRANCH  40  41
ENDBRANCH  36  40
ENDBRANCH   1  30
TORSDOF 22
ENDMDL
MODEL 7
REMARK VINA RESULT:      -7.3      3.011     10.398
REMARK  Name = 41774
REMARK                            x       y       z     vdW  Elec       q    Type
REMARK                         _______ _______ _______ _____ _____    ______ ____
ROOT
ATOM      1  O   LIG    1       14.909 164.437  16.760  0.00  0.00    -0.340 OA
ENDROOT
BRANCH   1   2
ATOM      2  C   LIG    1       14.035 164.655  15.655  0.00  0.00    +0.282 C 
ATOM      3  C   LIG    1       14.723 164.150  14.385  0.00  0.00    +0.200 C 
ATOM      4  C   LIG    1       13.866 164.431  13.148  0.00  0.00    +0.167 C 
ATOM      5  C   LIG    1       13.355 165.884  13.104  0.00  0.00    +0.114 C 
ATOM      6  C   LIG    1       12.823 166.371  14.470  0.00  0.00    +0.138 C 
ATOM      7  C   LIG    1       11.403 165.893  14.776  0.00  0.00    +0.039 C 
ATOM     29  O   LIG    1       13.717 166.042  15.540  0.00  0.00    -0.344 OA
BRANCH   5   8
ATOM      8  N   LIG    1       14.449 166.771  12.685  0.00  0.00    -0.300 NA
ATOM      9  H   LIG    1       15.312 166.508  13.159  0.00  0.00    +0.123 HD
BRANCH   8  10
ATOM     10  C   LIG    1       14.625 166.722  11.231  0.00  0.00    +0.109 C 
ATOM     11  C   LIG    1       14.595 168.102  10.627  0.00  0.00    -0.002 C 
ATOM     12  C   LIG    1       15.396 168.499   9.621  0.00  0.00    -0.016 C 
ATOM     16  C   LIG    1       16.400 167.571   8.971  0.00  0.00    +0.173 C 
ATOM     17  C   LIG    1       16.240 166.093   9.373  0.00  0.00    +0.177 C 
ATOM     22  C   LIG    1       15.895 165.926  10.858  0.00  0.00    +0.166 C 
BRANCH  17  18
ATOM     18  O   LIG    1       15.207 165.518   8.574  0.00  0.00    -0.386 OA
ATOM     19  H   LIG    1       14.355 165.751   8.982  0.00  0.00    +0.210 HD
ENDBRANCH  17  18
BRANCH  16  20
ATOM     20  O   LIG    1       17.704 168.026   9.328  0.00  0.00    -0.385 OA
ATOM     21  H   LIG    1       17.952 167.585  10.158  0.00  0.00    +0.210 HD
ENDBRANCH  16  20
BRANCH  22  23
ATOM     23  O   LIG    1       17.012 166.325  11.653  0.00  0.00    -0.387 OA
ATOM     24  H   LIG    1       17.615 165.564  11.714  0.00  0.00    +0.210 HD
ENDBRANCH  22  23
BRANCH  12  13
ATOM     13  C   LIG    1       15.322 169.893   9.068  0.00  0.00    +0.189 C 
BRANCH  13  14
ATOM     14  O   LIG    1       16.309 170.700   9.683  0.00  0.00    -0.391 OA
ATOM     15  H   LIG    1       16.674 171.283   8.995  0.00  0.00    +0.210 HD
ENDBRANCH  13  14
ENDBRANCH  12  13
ENDBRANCH   8  10
ENDBRANCH   5   8
BRANCH   4  25
ATOM     25  O   LIG    1       12.759 163.530  13.155  0.00  0.00    -0.387 OA
ATOM     26  H   LIG    1       12.003 164.000  13.548  0.00  0.00    +0.210 HD
ENDBRANCH   4  25
BRANCH   3  27
ATOM     27  O   LIG    1       15.987 164.801  14.258  0.00  0.00    -0.384 OA
ATOM     28  H   LIG    1       16.500 164.603  15.060  0.00  0.00    +0.210 HD
ENDBRANCH   3  27
ENDBRANCH   1   2
BRANCH   1  30
ATOM     30  C   LIG    1       14.187 164.383  17.994  0.00  0.00    +0.183 C 
ATOM     31  C   LIG    1       14.789 165.425  18.954  0.00  0.00    +0.178 C 
ATOM     35  O   LIG    1       16.069 165.010  19.448  0.00  0.00    -0.341 OA
ATOM     36  C   LIG    1       16.080 163.740  20.096  0.00  0.00    +0.282 C 
ATOM     37  C   LIG    1       15.643 162.639  19.125  0.00  0.00    +0.201 C 
ATOM     56  C   LIG    1       14.272 162.944  18.520  0.00  0.00    +0.179 C 
BRANCH  37  38
ATOM     38  O   LIG    1       16.608 162.512  18.080  0.00  0.00    -0.384 OA
ATOM     39  H   LIG    1       16.625 161.579  17.808  0.00  0.00    +0.210 HD
ENDBRANCH  37  38
BRANCH  56  57
ATOM     57  O   LIG    1       13.280 162.731  19.519  0.00  0.00    -0.386 OA
ATOM     58  H   LIG    1       12.413 162.896  19.112  0.00  0.00    +0.210 HD
ENDBRANCH  56  57
BRANCH  31  32
ATOM     32  C   LIG    1       13.856 165.818  20.098  0.00  0.00    +0.190 C 
BRANCH  32  33
ATOM     33  O   LIG    1       12.521 165.577  19.693  0.00  0.00    -0.392 OA
ATOM     34  H   LIG    1       12.029 165.291  20.482  0.00  0.00    +0.210 HD
ENDBRANCH  32  33
ENDBRANCH  31  32
BRANCH  36  40
ATOM     40  O   LIG    1       17.391 163.433  20.565  0.00  0.00    -0.340 OA
BRANCH  40  41
ATOM     41  C   LIG    1       18.227 164.588  20.561  0.00  0.00    +0.183 C 
ATOM     42  C   LIG    1       19.614 164.239  20.004  0.00  0.00    +0.178 C 
ATOM     46  O   LIG    1       20.507 165.352  20.123  0.00  0.00    -0.341 OA
ATOM     47  C   LIG    1       20.705 165.776  21.472  0.00  0.00    +0.279 C 
ATOM     48  C   LIG    1       19.378 166.208  22.099  0.00  0.00    +0.201 C 
ATOM     53  C   LIG    1       18.322 165.109  21.996  0.00  0.00    +0.179 C 
BRANCH  48  49
ATOM     49  O   LIG    1       19.567 166.555  23.466  0.00  0.00    -0.384 OA
ATOM     50  H   LIG    1       20.258 165.972  23.824  0.00  0.00    +0.210 HD
ENDBRANCH  48  49
BRANCH  47  51
ATOM     51  O   LIG    1       21.386 164.795  22.253  0.00  0.00    -0.365 OA
ATOM     52  H   LIG    1       20.934 163.946  22.106  0.00  0.00    +0.213 HD
ENDBRANCH  47  51
BRANCH  53  54
ATOM     54  O   LIG    1       17.049 165.649  22.362  0.00  0.00    -0.386 OA
ATOM     55  H   LIG    1       17.047 165.797  23.323  0.00  0.00    +0.210 HD
ENDBRANCH  53  54
BRANCH  42  43
ATOM     43  C   LIG    1       19.561 163.865  18.525  0.00  0.00    +0.190 C 
BRANCH  43  44
ATOM     44  O   LIG    1       19.393 162.463  18.421  0.00  0.00    -0.392 OA
ATOM     45  H   LIG    1       20.278 162.077  18.301  0.00  0.00    +0.210 HD
ENDBRANCH  43  44
ENDBRANCH  42  43
ENDBRANCH  40  41
ENDBRANCH  36  40
ENDBRANCH   1  30
TORSDOF 22
ENDMDL
MODEL 8
REMARK VINA RESULT:      -7.3     19.890     24.618
REMARK  Name = 41774
REMARK                            x       y       z     vdW  Elec       q    Type
REMARK                         _______ _______ _______ _____ _____    ______ ____
ROOT
ATOM      1  O   LIG    1       10.713 147.420  29.106  0.00  0.00    -0.340 OA
ENDROOT
BRANCH   1   2
ATOM      2  C   LIG    1       11.301 146.273  29.716  0.00  0.00    +0.282 C 
ATOM      3  C   LIG    1       12.717 146.102  29.164  0.00  0.00    +0.200 C 
ATOM      4  C   LIG    1       13.375 144.837  29.722  0.00  0.00    +0.167 C 
ATOM      5  C   LIG    1       12.458 143.602  29.618  0.00  0.00    +0.114 C 
ATOM      6  C   LIG    1       11.005 143.902  30.044  0.00  0.00    +0.138 C 
ATOM      7  C   LIG    1       10.802 143.909  31.560  0.00  0.00    +0.039 C 
ATOM     29  O   LIG    1       10.513 145.112  29.455  0.00  0.00    -0.344 OA
BRANCH   5   8
ATOM      8  N   LIG    1       12.450 143.120  28.230  0.00  0.00    -0.300 NA
ATOM      9  H   LIG    1       12.914 143.796  27.624  0.00  0.00    +0.123 HD
BRANCH   8  10
ATOM     10  C   LIG    1       13.102 141.811  28.135  0.00  0.00    +0.109 C 
ATOM     11  C   LIG    1       12.261 140.732  28.765  0.00  0.00    -0.002 C 
ATOM     12  C   LIG    1       12.128 139.492  28.259  0.00  0.00    -0.016 C 
ATOM     16  C   LIG    1       12.846 139.050  27.002  0.00  0.00    +0.173 C 
ATOM     17  C   LIG    1       13.925 140.034  26.516  0.00  0.00    +0.177 C 
ATOM     22  C   LIG    1       13.494 141.498  26.674  0.00  0.00    +0.166 C 
BRANCH  17  18
ATOM     18  O   LIG    1       15.117 139.803  27.266  0.00  0.00    -0.386 OA
ATOM     19  H   LIG    1       15.046 138.920  27.668  0.00  0.00    +0.210 HD
ENDBRANCH  17  18
BRANCH  16  20
ATOM     20  O   LIG    1       11.864 138.873  25.982  0.00  0.00    -0.385 OA
ATOM     21  H   LIG    1       11.067 139.358  26.254  0.00  0.00    +0.210 HD
ENDBRANCH  16  20
BRANCH  22  23
ATOM     23  O   LIG    1       12.420 141.776  25.776  0.00  0.00    -0.387 OA
ATOM     24  H   LIG    1       11.589 141.590  26.246  0.00  0.00    +0.210 HD
ENDBRANCH  22  23
BRANCH  12  13
ATOM     13  C   LIG    1       11.266 138.462  28.931  0.00  0.00    +0.189 C 
BRANCH  13  14
ATOM     14  O   LIG    1       11.460 138.522  30.332  0.00  0.00    -0.391 OA
ATOM     15  H   LIG    1       11.463 137.607  30.661  0.00  0.00    +0.210 HD
ENDBRANCH  13  14
ENDBRANCH  12  13
ENDBRANCH   8  10
ENDBRANCH   5   8
BRANCH   4  25
ATOM     25  O   LIG    1       13.713 145.073  31.089  0.00  0.00    -0.387 OA
ATOM     26  H   LIG    1       14.674 145.220  31.132  0.00  0.00    +0.210 HD
ENDBRANCH   4  25
BRANCH   3  27
ATOM     27  O   LIG    1       12.649 146.025  27.741  0.00  0.00    -0.384 OA
ATOM     28  H   LIG    1       12.201 146.829  27.426  0.00  0.00    +0.210 HD
ENDBRANCH   3  27
ENDBRANCH   1   2
BRANCH   1  30
ATOM     30  C   LIG    1        9.418 147.694  29.649  0.00  0.00    +0.183 C 
ATOM     31  C   LIG    1        8.615 148.493  28.608  0.00  0.00    +0.178 C 
ATOM     35  O   LIG    1        9.083 149.843  28.503  0.00  0.00    -0.341 OA
ATOM     36  C   LIG    1        9.088 150.574  29.727  0.00  0.00    +0.282 C 
ATOM     37  C   LIG    1       10.010 149.904  30.749  0.00  0.00    +0.201 C 
ATOM     56  C   LIG    1        9.619 148.442  30.973  0.00  0.00    +0.179 C 
BRANCH  37  38
ATOM     38  O   LIG    1       11.361 149.971  30.290  0.00  0.00    -0.384 OA
ATOM     39  H   LIG    1       11.549 150.899  30.068  0.00  0.00    +0.210 HD
ENDBRANCH  37  38
BRANCH  56  57
ATOM     57  O   LIG    1        8.420 148.408  31.739  0.00  0.00    -0.386 OA
ATOM     58  H   LIG    1        7.683 148.619  31.141  0.00  0.00    +0.210 HD
ENDBRANCH  56  57
BRANCH  31  32
ATOM     32  C   LIG    1        7.103 148.448  28.830  0.00  0.00    +0.190 C 
BRANCH  32  33
ATOM     33  O   LIG    1        6.473 149.155  27.778  0.00  0.00    -0.392 OA
ATOM     34  H   LIG    1        5.562 148.820  27.715  0.00  0.00    +0.210 HD
ENDBRANCH  32  33
ENDBRANCH  31  32
BRANCH  36  40
ATOM     40  O   LIG    1        9.549 151.906  29.509  0.00  0.00    -0.340 OA
BRANCH  40  41
ATOM     41  C   LIG    1        8.600 152.866  29.967  0.00  0.00    +0.183 C 
ATOM     42  C   LIG    1        8.976 153.358  31.371  0.00  0.00    +0.178 C 
ATOM     46  O   LIG    1        7.958 154.216  31.901  0.00  0.00    -0.341 OA
ATOM     47  C   LIG    1        6.686 153.577  32.020  0.00  0.00    +0.279 C 
ATOM     48  C   LIG    1        6.193 153.104  30.652  0.00  0.00    +0.201 C 
ATOM     53  C   LIG    1        7.220 152.206  29.963  0.00  0.00    +0.179 C 
BRANCH  48  49
ATOM     49  O   LIG    1        4.964 152.399  30.786  0.00  0.00    -0.384 OA
ATOM     50  H   LIG    1        4.457 152.536  29.968  0.00  0.00    +0.210 HD
ENDBRANCH  48  49
BRANCH  47  51
ATOM     51  O   LIG    1        6.695 152.532  32.991  0.00  0.00    -0.365 OA
ATOM     52  H   LIG    1        7.489 151.994  32.828  0.00  0.00    +0.213 HD
ENDBRANCH  47  51
BRANCH  53  54
ATOM     54  O   LIG    1        6.824 152.003  28.604  0.00  0.00    -0.386 OA
ATOM     55  H   LIG    1        6.497 151.092  28.516  0.00  0.00    +0.210 HD
ENDBRANCH  53  54
BRANCH  42  43
ATOM     43  C   LIG    1       10.277 154.157  31.370  0.00  0.00    +0.190 C 
BRANCH  43  44
ATOM     44  O   LIG    1       10.609 154.473  30.031  0.00  0.00    -0.392 OA
ATOM     45  H   LIG    1       11.166 153.749  29.695  0.00  0.00    +0.210 HD
ENDBRANCH  43  44
ENDBRANCH  42  43
ENDBRANCH  40  41
ENDBRANCH  36  40
ENDBRANCH   1  30
TORSDOF 22
ENDMDL
MODEL 9
REMARK VINA RESULT:      -7.2     17.455     21.883
REMARK  Name = 41774
REMARK                            x       y       z     vdW  Elec       q    Type
REMARK                         _______ _______ _______ _____ _____    ______ ____
ROOT
ATOM      1  O   LIG    1        7.377 149.990  30.445  0.00  0.00    -0.340 OA
ENDROOT
BRANCH   1   2
ATOM      2  C   LIG    1        6.822 151.253  30.807  0.00  0.00    +0.282 C 
ATOM      3  C   LIG    1        6.197 151.883  29.561  0.00  0.00    +0.200 C 
ATOM      4  C   LIG    1        5.653 153.282  29.868  0.00  0.00    +0.167 C 
ATOM      5  C   LIG    1        6.671 154.155  30.626  0.00  0.00    +0.114 C 
ATOM      6  C   LIG    1        7.375 153.393  31.769  0.00  0.00    +0.138 C 
ATOM      7  C   LIG    1        6.534 153.291  33.043  0.00  0.00    +0.039 C 
ATOM     29  O   LIG    1        7.832 152.102  31.350  0.00  0.00    -0.344 OA
BRANCH   5   8
ATOM      8  N   LIG    1        7.692 154.638  29.685  0.00  0.00    -0.300 NA
ATOM      9  H   LIG    1        7.268 155.266  29.004  0.00  0.00    +0.123 HD
BRANCH   8  10
ATOM     10  C   LIG    1        8.777 155.312  30.402  0.00  0.00    +0.109 C 
ATOM     11  C   LIG    1       10.029 155.378  29.567  0.00  0.00    -0.002 C 
ATOM     12  C   LIG    1       10.851 156.442  29.530  0.00  0.00    -0.016 C 
ATOM     16  C   LIG    1       10.607 157.683  30.362  0.00  0.00    +0.173 C 
ATOM     17  C   LIG    1        9.509 157.518  31.428  0.00  0.00    +0.177 C 
ATOM     22  C   LIG    1        8.320 156.694  30.918  0.00  0.00    +0.166 C 
BRANCH  17  18
ATOM     18  O   LIG    1       10.079 156.879  32.569  0.00  0.00    -0.386 OA
ATOM     19  H   LIG    1        9.729 155.972  32.604  0.00  0.00    +0.210 HD
ENDBRANCH  17  18
BRANCH  16  20
ATOM     20  O   LIG    1       10.254 158.739  29.470  0.00  0.00    -0.385 OA
ATOM     21  H   LIG    1       11.042 159.294  29.345  0.00  0.00    +0.210 HD
ENDBRANCH  16  20
BRANCH  22  23
ATOM     23  O   LIG    1        7.633 157.427  29.904  0.00  0.00    -0.387 OA
ATOM     24  H   LIG    1        6.681 157.268  30.020  0.00  0.00    +0.210 HD
ENDBRANCH  22  23
BRANCH  12  13
ATOM     13  C   LIG    1       12.082 156.449  28.669  0.00  0.00    +0.189 C 
BRANCH  13  14
ATOM     14  O   LIG    1       11.780 157.036  27.417  0.00  0.00    -0.391 OA
ATOM     15  H   LIG    1       11.715 157.996  27.557  0.00  0.00    +0.210 HD
ENDBRANCH  13  14
ENDBRANCH  12  13
ENDBRANCH   8  10
ENDBRANCH   5   8
BRANCH   4  25
ATOM     25  O   LIG    1        4.464 153.139  30.646  0.00  0.00    -0.387 OA
ATOM     26  H   LIG    1        4.313 152.187  30.777  0.00  0.00    +0.210 HD
ENDBRANCH   4  25
BRANCH   3  27
ATOM     27  O   LIG    1        7.189 151.963  28.539  0.00  0.00    -0.384 OA
ATOM     28  H   LIG    1        6.861 151.462  27.773  0.00  0.00    +0.210 HD
ENDBRANCH   3  27
ENDBRANCH   1   2
BRANCH   1  30
ATOM     30  C   LIG    1        8.748 149.890  30.840  0.00  0.00    +0.183 C 
ATOM     31  C   LIG    1        9.606 149.718  29.574  0.00  0.00    +0.178 C 
ATOM     35  O   LIG    1        9.459 148.408  29.011  0.00  0.00    -0.341 OA
ATOM     36  C   LIG    1        9.750 147.335  29.903  0.00  0.00    +0.282 C 
ATOM     37  C   LIG    1        8.805 147.366  31.107  0.00  0.00    +0.201 C 
ATOM     56  C   LIG    1        8.864 148.717  31.822  0.00  0.00    +0.179 C 
BRANCH  37  38
ATOM     38  O   LIG    1        7.468 147.115  30.673  0.00  0.00    -0.384 OA
ATOM     39  H   LIG    1        6.901 147.804  31.057  0.00  0.00    +0.210 HD
ENDBRANCH  37  38
BRANCH  56  57
ATOM     57  O   LIG    1       10.094 148.798  32.535  0.00  0.00    -0.386 OA
ATOM     58  H   LIG    1       10.564 147.957  32.405  0.00  0.00    +0.210 HD
ENDBRANCH  56  57
BRANCH  31  32
ATOM     32  C   LIG    1       11.079 150.070  29.777  0.00  0.00    +0.190 C 
BRANCH  32  33
ATOM     33  O   LIG    1       11.178 151.460  30.025  0.00  0.00    -0.392 OA
ATOM     34  H   LIG    1       11.330 151.894  29.168  0.00  0.00    +0.210 HD
ENDBRANCH  32  33
ENDBRANCH  31  32
BRANCH  36  40
ATOM     40  O   LIG    1        9.594 146.081  29.240  0.00  0.00    -0.340 OA
BRANCH  40  41
ATOM     41  C   LIG    1       10.846 145.418  29.080  0.00  0.00    +0.183 C 
ATOM     42  C   LIG    1       11.291 144.794  30.409  0.00  0.00    +0.178 C 
ATOM     46  O   LIG    1       12.610 144.246  30.299  0.00  0.00    -0.341 OA
ATOM     47  C   LIG    1       13.599 145.218  29.955  0.00  0.00    +0.279 C 
ATOM     48  C   LIG    1       13.275 145.857  28.604  0.00  0.00    +0.201 C 
ATOM     53  C   LIG    1       11.865 146.446  28.583  0.00  0.00    +0.179 C 
BRANCH  48  49
ATOM     49  O   LIG    1       14.217 146.879  28.302  0.00  0.00    -0.384 OA
ATOM     50  H   LIG    1       14.725 146.590  27.525  0.00  0.00    +0.210 HD
ENDBRANCH  48  49
BRANCH  47  51
ATOM     51  O   LIG    1       13.789 146.185  30.987  0.00  0.00    -0.365 OA
ATOM     52  H   LIG    1       13.607 147.058  30.600  0.00  0.00    +0.213 HD
ENDBRANCH  47  51
BRANCH  53  54
ATOM     54  O   LIG    1       11.526 146.799  27.239  0.00  0.00    -0.386 OA
ATOM     55  H   LIG    1       12.165 147.463  26.929  0.00  0.00    +0.210 HD
ENDBRANCH  53  54
BRANCH  42  43
ATOM     43  C   LIG    1       10.370 143.657  30.845  0.00  0.00    +0.190 C 
BRANCH  43  44
ATOM     44  O   LIG    1        9.667 143.188  29.709  0.00  0.00    -0.392 OA
ATOM     45  H   LIG    1        9.024 143.876  29.466  0.00  0.00    +0.210 HD
ENDBRANCH  43  44
ENDBRANCH  42  43
ENDBRANCH  40  41
ENDBRANCH  36  40
ENDBRANCH   1  30
TORSDOF 22
ENDMDL
