MODEL 1
REMARK VINA RESULT:      -5.7      0.000      0.000
REMARK  Name = 445858
REMARK                            x       y       z     vdW  Elec       q    Type
REMARK                         _______ _______ _______ _____ _____    ______ ____
ROOT
ATOM      3  C   LIG    1       25.000 155.557  33.421  0.00  0.00    +0.162 A 
ATOM      4  C   LIG    1       23.853 155.869  32.692  0.00  0.00    +0.158 A 
ATOM      5  C   LIG    1       23.962 156.291  31.367  0.00  0.00    +0.050 A 
ATOM      6  C   LIG    1       25.219 156.403  30.772  0.00  0.00    +0.012 A 
ATOM      7  C   LIG    1       26.366 156.092  31.501  0.00  0.00    -0.021 A 
ATOM     16  C   LIG    1       26.257 155.669  32.826  0.00  0.00    +0.057 A 
ENDROOT
BRANCH   3   1
ATOM      1  O   LIG    1       24.906 155.144  34.716  0.00  0.00    -0.491 OA
ATOM      2  C   LIG    1       25.626 155.898  35.690  0.00  0.00    +0.277 C 
ENDBRANCH   3   1
BRANCH   7   8
ATOM      8  C   LIG    1       27.676 156.207  30.881  0.00  0.00    +0.015 C 
ATOM      9  C   LIG    1       27.942 156.001  29.571  0.00  0.00    +0.092 C 
BRANCH   9  10
ATOM     10  C   LIG    1       29.318 156.160  29.061  0.00  0.00    +0.330 C 
ATOM     11  O   LIG    1       30.349 155.984  29.689  0.00  0.00    -0.246 OA
BRANCH  10  12
ATOM     12  O   LIG    1       29.259 156.538  27.763  0.00  0.00    -0.478 OA
ATOM     13  H   LIG    1       29.311 155.770  27.154  0.00  0.00    +0.295 HD
ENDBRANCH  10  12
ENDBRANCH   9  10
ENDBRANCH   7   8
BRANCH   4  14
ATOM     14  O   LIG    1       22.620 155.765  33.262  0.00  0.00    -0.503 OA
ATOM     15  H   LIG    1       22.335 154.835  33.233  0.00  0.00    +0.292 HD
ENDBRANCH   4  14
TORSDOF 5
ENDMDL
MODEL 2
REMARK VINA RESULT:      -5.4      1.682      3.235
REMARK  Name = 445858
REMARK                            x       y       z     vdW  Elec       q    Type
REMARK                         _______ _______ _______ _____ _____    ______ ____
ROOT
ATOM      3  C   LIG    1       24.237 156.274  30.112  0.00  0.00    +0.162 A 
ATOM      4  C   LIG    1       24.116 156.323  31.501  0.00  0.00    +0.158 A 
ATOM      5  C   LIG    1       25.245 156.175  32.305  0.00  0.00    +0.050 A 
ATOM      6  C   LIG    1       26.497 155.977  31.721  0.00  0.00    +0.012 A 
ATOM      7  C   LIG    1       26.618 155.927  30.333  0.00  0.00    -0.021 A 
ATOM     16  C   LIG    1       25.489 156.076  29.528  0.00  0.00    +0.057 A 
ENDROOT
BRANCH   3   1
ATOM      1  O   LIG    1       23.141 156.416  29.316  0.00  0.00    -0.491 OA
ATOM      2  C   LIG    1       23.018 155.516  28.217  0.00  0.00    +0.277 C 
ENDBRANCH   3   1
BRANCH   7   8
ATOM      8  C   LIG    1       27.922 155.722  29.724  0.00  0.00    +0.015 C 
ATOM      9  C   LIG    1       28.884 156.664  29.599  0.00  0.00    +0.092 C 
BRANCH   9  10
ATOM     10  C   LIG    1       30.175 156.326  28.968  0.00  0.00    +0.330 C 
ATOM     11  O   LIG    1       30.500 156.555  27.814  0.00  0.00    -0.246 OA
BRANCH  10  12
ATOM     12  O   LIG    1       30.959 155.711  29.884  0.00  0.00    -0.478 OA
ATOM     13  H   LIG    1       30.446 155.414  30.666  0.00  0.00    +0.295 HD
ENDBRANCH  10  12
ENDBRANCH   9  10
ENDBRANCH   7   8
BRANCH   4  14
ATOM     14  O   LIG    1       22.899 156.514  32.083  0.00  0.00    -0.503 OA
ATOM     15  H   LIG    1       22.263 155.884  31.703  0.00  0.00    +0.292 HD
ENDBRANCH   4  14
TORSDOF 5
ENDMDL
MODEL 3
REMARK VINA RESULT:      -5.1      2.684      5.796
REMARK  Name = 445858
REMARK                            x       y       z     vdW  Elec       q    Type
REMARK                         _______ _______ _______ _____ _____    ______ ____
ROOT
ATOM      3  C   LIG    1       25.384 155.993  32.843  0.00  0.00    +0.162 A 
ATOM      4  C   LIG    1       24.916 155.581  34.092  0.00  0.00    +0.158 A 
ATOM      5  C   LIG    1       23.553 155.363  34.288  0.00  0.00    +0.050 A 
ATOM      6  C   LIG    1       22.657 155.557  33.236  0.00  0.00    +0.012 A 
ATOM      7  C   LIG    1       23.124 155.969  31.990  0.00  0.00    -0.021 A 
ATOM     16  C   LIG    1       24.487 156.187  31.792  0.00  0.00    +0.057 A 
ENDROOT
BRANCH   3   1
ATOM      1  O   LIG    1       26.714 156.210  32.640  0.00  0.00    -0.491 OA
ATOM      2  C   LIG    1       27.179 156.155  31.293  0.00  0.00    +0.277 C 
ENDBRANCH   3   1
BRANCH   7   8
ATOM      8  C   LIG    1       22.190 156.171  30.893  0.00  0.00    +0.015 C 
ATOM      9  C   LIG    1       20.845 156.064  30.982  0.00  0.00    +0.092 C 
BRANCH   9  10
ATOM     10  C   LIG    1       20.003 156.304  29.793  0.00  0.00    +0.330 C 
ATOM     11  O   LIG    1       19.911 157.348  29.169  0.00  0.00    -0.246 OA
BRANCH  10  12
ATOM     12  O   LIG    1       19.337 155.164  29.496  0.00  0.00    -0.478 OA
ATOM     13  H   LIG    1       19.504 154.871  28.575  0.00  0.00    +0.295 HD
ENDBRANCH  10  12
ENDBRANCH   9  10
ENDBRANCH   7   8
BRANCH   4  14
ATOM     14  O   LIG    1       25.781 155.389  35.126  0.00  0.00    -0.503 OA
ATOM     15  H   LIG    1       25.714 154.466  35.429  0.00  0.00    +0.292 HD
ENDBRANCH   4  14
TORSDOF 5
ENDMDL
MODEL 4
REMARK VINA RESULT:      -5.0     24.969     26.576
REMARK  Name = 445858
REMARK                            x       y       z     vdW  Elec       q    Type
REMARK                         _______ _______ _______ _____ _____    ______ ____
ROOT
ATOM      3  C   LIG    1        8.563 140.715  22.110  0.00  0.00    +0.162 A 
ATOM      4  C   LIG    1        9.761 141.428  22.046  0.00  0.00    +0.158 A 
ATOM      5  C   LIG    1       10.264 141.836  20.812  0.00  0.00    +0.050 A 
ATOM      6  C   LIG    1        9.570 141.533  19.640  0.00  0.00    +0.012 A 
ATOM      7  C   LIG    1        8.373 140.821  19.704  0.00  0.00    -0.021 A 
ATOM     16  C   LIG    1        7.869 140.412  20.938  0.00  0.00    +0.057 A 
ENDROOT
BRANCH   3   1
ATOM      1  O   LIG    1        8.062 140.310  23.311  0.00  0.00    -0.491 OA
ATOM      2  C   LIG    1        7.817 138.914  23.472  0.00  0.00    +0.277 C 
ENDBRANCH   3   1
BRANCH   7   8
ATOM      8  C   LIG    1        7.649 140.506  18.483  0.00  0.00    +0.015 C 
ATOM      9  C   LIG    1        7.497 141.336  17.427  0.00  0.00    +0.092 C 
BRANCH   9  10
ATOM     10  C   LIG    1        6.744 140.891  16.237  0.00  0.00    +0.330 C 
ATOM     11  O   LIG    1        7.157 140.164  15.349  0.00  0.00    -0.246 OA
BRANCH  10  12
ATOM     12  O   LIG    1        5.501 141.425  16.286  0.00  0.00    -0.478 OA
ATOM     13  H   LIG    1        5.039 141.357  15.423  0.00  0.00    +0.295 HD
ENDBRANCH  10  12
ENDBRANCH   9  10
ENDBRANCH   7   8
BRANCH   4  14
ATOM     14  O   LIG    1       10.449 141.729  23.183  0.00  0.00    -0.503 OA
ATOM     15  H   LIG    1        9.822 142.039  23.860  0.00  0.00    +0.292 HD
ENDBRANCH   4  14
TORSDOF 5
ENDMDL
MODEL 5
REMARK VINA RESULT:      -4.9     20.090     20.642
REMARK  Name = 445858
REMARK                            x       y       z     vdW  Elec       q    Type
REMARK                         _______ _______ _______ _____ _____    ______ ____
ROOT
ATOM      3  C   LIG    1       29.635 136.594  29.150  0.00  0.00    +0.162 A 
ATOM      4  C   LIG    1       29.714 137.975  29.333  0.00  0.00    +0.158 A 
ATOM      5  C   LIG    1       30.004 138.805  28.251  0.00  0.00    +0.050 A 
ATOM      6  C   LIG    1       30.216 138.256  26.986  0.00  0.00    +0.012 A 
ATOM      7  C   LIG    1       30.138 136.876  26.804  0.00  0.00    -0.021 A 
ATOM     16  C   LIG    1       29.847 136.044  27.886  0.00  0.00    +0.057 A 
ENDROOT
BRANCH   3   1
ATOM      1  O   LIG    1       29.353 135.771  30.200  0.00  0.00    -0.491 OA
ATOM      2  C   LIG    1       27.989 135.400  30.383  0.00  0.00    +0.277 C 
ENDBRANCH   3   1
BRANCH   7   8
ATOM      8  C   LIG    1       30.358 136.303  25.486  0.00  0.00    +0.015 C 
ATOM      9  C   LIG    1       30.098 135.023  25.135  0.00  0.00    +0.092 C 
BRANCH   9  10
ATOM     10  C   LIG    1       30.357 134.566  23.756  0.00  0.00    +0.330 C 
ATOM     11  O   LIG    1       30.618 135.271  22.795  0.00  0.00    -0.246 OA
BRANCH  10  12
ATOM     12  O   LIG    1       30.259 133.216  23.721  0.00  0.00    -0.478 OA
ATOM     13  H   LIG    1       30.756 132.832  22.968  0.00  0.00    +0.295 HD
ENDBRANCH  10  12
ENDBRANCH   9  10
ENDBRANCH   7   8
BRANCH   4  14
ATOM     14  O   LIG    1       29.510 138.523  30.563  0.00  0.00    -0.503 OA
ATOM     15  H   LIG    1       28.788 138.045  31.007  0.00  0.00    +0.292 HD
ENDBRANCH   4  14
TORSDOF 5
ENDMDL
MODEL 6
REMARK VINA RESULT:      -4.8     25.951     27.980
REMARK  Name = 445858
REMARK                            x       y       z     vdW  Elec       q    Type
REMARK                         _______ _______ _______ _____ _____    ______ ____
ROOT
ATOM      3  C   LIG    1       24.217 141.943   8.810  0.00  0.00    +0.162 A 
ATOM      4  C   LIG    1       24.837 143.048   9.394  0.00  0.00    +0.158 A 
ATOM      5  C   LIG    1       24.554 144.332   8.931  0.00  0.00    +0.050 A 
ATOM      6  C   LIG    1       23.650 144.513   7.883  0.00  0.00    +0.012 A 
ATOM      7  C   LIG    1       23.030 143.409   7.300  0.00  0.00    -0.021 A 
ATOM     16  C   LIG    1       23.313 142.124   7.762  0.00  0.00    +0.057 A 
ENDROOT
BRANCH   3   1
ATOM      1  O   LIG    1       24.486 140.683   9.253  0.00  0.00    -0.491 OA
ATOM      2  C   LIG    1       24.811 139.706   8.266  0.00  0.00    +0.277 C 
ENDBRANCH   3   1
BRANCH   7   8
ATOM      8  C   LIG    1       22.088 143.597   6.209  0.00  0.00    +0.015 C 
ATOM      9  C   LIG    1       21.781 144.783   5.635  0.00  0.00    +0.092 C 
BRANCH   9  10
ATOM     10  C   LIG    1       20.811 144.839   4.524  0.00  0.00    +0.330 C 
ATOM     11  O   LIG    1       20.823 145.625   3.591  0.00  0.00    -0.246 OA
BRANCH  10  12
ATOM     12  O   LIG    1       19.888 143.865   4.703  0.00  0.00    -0.478 OA
ATOM     13  H   LIG    1       20.179 143.201   5.364  0.00  0.00    +0.295 HD
ENDBRANCH  10  12
ENDBRANCH   9  10
ENDBRANCH   7   8
BRANCH   4  14
ATOM     14  O   LIG    1       25.722 142.884  10.416  0.00  0.00    -0.503 OA
ATOM     15  H   LIG    1       25.832 141.933  10.591  0.00  0.00    +0.292 HD
ENDBRANCH   4  14
TORSDOF 5
ENDMDL
MODEL 7
REMARK VINA RESULT:      -4.8     23.080     24.531
REMARK  Name = 445858
REMARK                            x       y       z     vdW  Elec       q    Type
REMARK                         _______ _______ _______ _____ _____    ______ ____
ROOT
ATOM      3  C   LIG    1       30.929 141.304  12.427  0.00  0.00    +0.162 A 
ATOM      4  C   LIG    1       30.121 140.264  11.966  0.00  0.00    +0.158 A 
ATOM      5  C   LIG    1       30.022 139.081  12.698  0.00  0.00    +0.050 A 
ATOM      6  C   LIG    1       30.730 138.937  13.891  0.00  0.00    +0.012 A 
ATOM      7  C   LIG    1       31.537 139.976  14.352  0.00  0.00    -0.021 A 
ATOM     16  C   LIG    1       31.637 141.160  13.621  0.00  0.00    +0.057 A 
ENDROOT
BRANCH   3   1
ATOM      1  O   LIG    1       31.035 142.464  11.721  0.00  0.00    -0.491 OA
ATOM      2  C   LIG    1       30.626 143.662  12.378  0.00  0.00    +0.277 C 
ENDBRANCH   3   1
BRANCH   7   8
ATOM      8  C   LIG    1       32.274 139.827  15.597  0.00  0.00    +0.015 C 
ATOM      9  C   LIG    1       33.611 139.654  15.699  0.00  0.00    +0.092 C 
BRANCH   9  10
ATOM     10  C   LIG    1       34.242 139.524  17.027  0.00  0.00    +0.330 C 
ATOM     11  O   LIG    1       35.093 138.711  17.349  0.00  0.00    -0.246 OA
BRANCH  10  12
ATOM     12  O   LIG    1       33.722 140.466  17.848  0.00  0.00    -0.478 OA
ATOM     13  H   LIG    1       33.951 140.301  18.788  0.00  0.00    +0.295 HD
ENDBRANCH  10  12
ENDBRANCH   9  10
ENDBRANCH   7   8
BRANCH   4  14
ATOM     14  O   LIG    1       29.426 140.392  10.801  0.00  0.00    -0.503 OA
ATOM     15  H   LIG    1       28.480 140.255  10.981  0.00  0.00    +0.292 HD
ENDBRANCH   4  14
TORSDOF 5
ENDMDL
MODEL 8
REMARK VINA RESULT:      -4.8     14.908     18.055
REMARK  Name = 445858
REMARK                            x       y       z     vdW  Elec       q    Type
REMARK                         _______ _______ _______ _____ _____    ______ ____
ROOT
ATOM      3  C   LIG    1       36.379 154.048  44.461  0.00  0.00    +0.162 A 
ATOM      4  C   LIG    1       37.596 153.839  45.111  0.00  0.00    +0.158 A 
ATOM      5  C   LIG    1       37.703 154.075  46.481  0.00  0.00    +0.050 A 
ATOM      6  C   LIG    1       36.593 154.519  47.202  0.00  0.00    +0.012 A 
ATOM      7  C   LIG    1       35.378 154.727  46.552  0.00  0.00    -0.021 A 
ATOM     16  C   LIG    1       35.270 154.492  45.181  0.00  0.00    +0.057 A 
ENDROOT
BRANCH   3   1
ATOM      1  O   LIG    1       36.263 153.822  43.122  0.00  0.00    -0.491 OA
ATOM      2  C   LIG    1       34.974 153.448  42.638  0.00  0.00    +0.277 C 
ENDBRANCH   3   1
BRANCH   7   8
ATOM      8  C   LIG    1       34.222 155.189  47.303  0.00  0.00    +0.015 C 
ATOM      9  C   LIG    1       33.923 156.481  47.564  0.00  0.00    +0.092 C 
BRANCH   9  10
ATOM     10  C   LIG    1       32.709 156.821  48.332  0.00  0.00    +0.330 C 
ATOM     11  O   LIG    1       32.516 157.844  48.967  0.00  0.00    -0.246 OA
BRANCH  10  12
ATOM     12  O   LIG    1       31.825 155.802  48.220  0.00  0.00    -0.478 OA
ATOM     13  H   LIG    1       31.925 155.148  48.944  0.00  0.00    +0.295 HD
ENDBRANCH  10  12
ENDBRANCH   9  10
ENDBRANCH   7   8
BRANCH   4  14
ATOM     14  O   LIG    1       38.686 153.407  44.418  0.00  0.00    -0.503 OA
ATOM     15  H   LIG    1       39.153 154.178  44.051  0.00  0.00    +0.292 HD
ENDBRANCH   4  14
TORSDOF 5
ENDMDL
MODEL 9
REMARK VINA RESULT:      -4.7     22.504     24.791
REMARK  Name = 445858
REMARK                            x       y       z     vdW  Elec       q    Type
REMARK                         _______ _______ _______ _____ _____    ______ ____
ROOT
ATOM      3  C   LIG    1       30.146 139.262  12.313  0.00  0.00    +0.162 A 
ATOM      4  C   LIG    1       29.751 140.530  11.885  0.00  0.00    +0.158 A 
ATOM      5  C   LIG    1       30.076 141.654  12.643  0.00  0.00    +0.050 A 
ATOM      6  C   LIG    1       30.795 141.512  13.830  0.00  0.00    +0.012 A 
ATOM      7  C   LIG    1       31.190 140.245  14.257  0.00  0.00    -0.021 A 
ATOM     16  C   LIG    1       30.865 139.119  13.500  0.00  0.00    +0.057 A 
ENDROOT
BRANCH   3   1
ATOM      1  O   LIG    1       29.833 138.156  11.581  0.00  0.00    -0.491 OA
ATOM      2  C   LIG    1       30.865 137.610  10.761  0.00  0.00    +0.277 C 
ENDBRANCH   3   1
BRANCH   7   8
ATOM      8  C   LIG    1       31.941 140.096  15.494  0.00  0.00    +0.015 C 
ATOM      9  C   LIG    1       33.175 140.597  15.725  0.00  0.00    +0.092 C 
BRANCH   9  10
ATOM     10  C   LIG    1       33.828 140.384  17.031  0.00  0.00    +0.330 C 
ATOM     11  O   LIG    1       34.608 139.490  17.315  0.00  0.00    -0.246 OA
BRANCH  10  12
ATOM     12  O   LIG    1       33.422 141.354  17.883  0.00  0.00    -0.478 OA
ATOM     13  H   LIG    1       33.188 142.182  17.412  0.00  0.00    +0.295 HD
ENDBRANCH  10  12
ENDBRANCH   9  10
ENDBRANCH   7   8
BRANCH   4  14
ATOM     14  O   LIG    1       29.047 140.682  10.728  0.00  0.00    -0.503 OA
ATOM     15  H   LIG    1       28.374 139.981  10.673  0.00  0.00    +0.292 HD
ENDBRANCH   4  14
TORSDOF 5
ENDMDL
