MODEL 1
REMARK VINA RESULT:      -7.7      0.000      0.000
REMARK  Name = 5280805
REMARK                            x       y       z     vdW  Elec       q    Type
REMARK                         _______ _______ _______ _____ _____    ______ ____
ROOT
ATOM      1  O   LIG    1       12.290 146.472  32.826  0.00  0.00    -0.331 OA
ATOM      2  C   LIG    1       12.773 147.359  33.832  0.00  0.00    +0.340 C 
ATOM      3  C   LIG    1       12.538 146.771  35.224  0.00  0.00    +0.214 C 
ATOM      4  C   LIG    1       13.130 145.366  35.340  0.00  0.00    +0.180 C 
ATOM      5  C   LIG    1       12.717 144.491  34.156  0.00  0.00    +0.177 C 
ATOM     38  C   LIG    1       12.970 145.215  32.832  0.00  0.00    +0.179 C 
ENDROOT
BRANCH   5   6
ATOM      6  O   LIG    1       13.468 143.280  34.181  0.00  0.00    -0.386 OA
ATOM      7  H   LIG    1       13.698 143.049  33.266  0.00  0.00    +0.210 HD
ENDBRANCH   5   6
BRANCH   4   8
ATOM      8  O   LIG    1       12.652 144.746  36.535  0.00  0.00    -0.386 OA
ATOM      9  H   LIG    1       12.313 145.450  37.113  0.00  0.00    +0.210 HD
ENDBRANCH   4   8
BRANCH   3  10
ATOM     10  O   LIG    1       13.158 147.627  36.182  0.00  0.00    -0.383 OA
ATOM     11  H   LIG    1       12.498 148.277  36.478  0.00  0.00    +0.210 HD
ENDBRANCH   3  10
BRANCH   2  12
ATOM     12  O   LIG    1       12.073 148.600  33.756  0.00  0.00    -0.453 OA
BRANCH  12  13
ATOM     13  C   LIG    1       12.809 149.558  33.094  0.00  0.00    +0.214 A 
ATOM     14  C   LIG    1       14.072 150.021  33.719  0.00  0.00    +0.238 A 
ATOM     15  C   LIG    1       14.839 151.028  32.970  0.00  0.00    +0.109 A 
ATOM     16  C   LIG    1       16.042 151.530  33.475  0.00  0.00    +0.135 A 
ATOM     17  C   LIG    1       16.751 152.484  32.742  0.00  0.00    +0.091 A 
ATOM     18  C   LIG    1       16.262 152.931  31.515  0.00  0.00    +0.124 A 
ATOM     19  C   LIG    1       15.061 152.427  31.014  0.00  0.00    +0.092 A 
ATOM     24  C   LIG    1       14.350 151.474  31.744  0.00  0.00    +0.147 A 
ATOM     25  O   LIG    1       13.178 151.016  31.201  0.00  0.00    -0.451 OA
ATOM     26  O   LIG    1       14.455 149.588  34.797  0.00  0.00    -0.283 OA
ATOM     27  C   LIG    1       12.444 150.076  31.907  0.00  0.00    +0.181 A 
BRANCH  27  28
ATOM     28  C   LIG    1       11.210 149.670  31.212  0.00  0.00    +0.025 A 
ATOM     29  C   LIG    1       10.009 150.325  31.481  0.00  0.00    +0.015 A 
ATOM     30  C   LIG    1        8.841 149.941  30.823  0.00  0.00    +0.050 A 
ATOM     31  C   LIG    1        8.873 148.898  29.896  0.00  0.00    +0.158 A 
ATOM     32  C   LIG    1       10.074 148.242  29.627  0.00  0.00    +0.159 A 
ATOM     37  C   LIG    1       11.242 148.628  30.285  0.00  0.00    +0.060 A 
BRANCH  32  33
ATOM     33  O   LIG    1       10.119 147.224  28.723  0.00  0.00    -0.503 OA
ATOM     34  H   LIG    1       11.041 147.050  28.473  0.00  0.00    +0.292 HD
ENDBRANCH  32  33
BRANCH  31  35
ATOM     35  O   LIG    1        7.726 148.530  29.261  0.00  0.00    -0.503 OA
ATOM     36  H   LIG    1        7.803 148.716  28.312  0.00  0.00    +0.292 HD
ENDBRANCH  31  35
ENDBRANCH  27  28
BRANCH  18  20
ATOM     20  O   LIG    1       16.957 153.861  30.804  0.00  0.00    -0.507 OA
ATOM     21  H   LIG    1       17.835 153.503  30.590  0.00  0.00    +0.292 HD
ENDBRANCH  18  20
BRANCH  16  22
ATOM     22  O   LIG    1       16.564 151.127  34.667  0.00  0.00    -0.506 OA
ATOM     23  H   LIG    1       17.137 150.354  34.525  0.00  0.00    +0.292 HD
ENDBRANCH  16  22
ENDBRANCH  12  13
ENDBRANCH   2  12
BRANCH  38  39
ATOM     39  C   LIG    1       12.459 144.410  31.641  0.00  0.00    +0.197 C 
BRANCH  39  40
ATOM     40  O   LIG    1       13.403 144.499  30.583  0.00  0.00    -0.346 OA
BRANCH  40  41
ATOM     41  C   LIG    1       12.773 144.821  29.348  0.00  0.00    +0.282 C 
ATOM     42  C   LIG    1       13.496 145.995  28.691  0.00  0.00    +0.201 C 
ATOM     43  C   LIG    1       14.876 145.571  28.183  0.00  0.00    +0.179 C 
ATOM     44  C   LIG    1       14.775 144.327  27.300  0.00  0.00    +0.174 C 
ATOM     45  C   LIG    1       13.993 143.226  28.028  0.00  0.00    +0.149 C 
ATOM     46  C   LIG    1       13.740 142.016  27.131  0.00  0.00    +0.041 C 
ATOM     53  O   LIG    1       12.713 143.702  28.458  0.00  0.00    -0.343 OA
BRANCH  44  47
ATOM     47  O   LIG    1       16.098 143.882  27.008  0.00  0.00    -0.387 OA
ATOM     48  H   LIG    1       16.403 144.356  26.215  0.00  0.00    +0.210 HD
ENDBRANCH  44  47
BRANCH  43  49
ATOM     49  O   LIG    1       15.465 146.632  27.434  0.00  0.00    -0.386 OA
ATOM     50  H   LIG    1       16.427 146.591  27.568  0.00  0.00    +0.210 HD
ENDBRANCH  43  49
BRANCH  42  51
ATOM     51  O   LIG    1       12.692 146.445  27.599  0.00  0.00    -0.384 OA
ATOM     52  H   LIG    1       12.751 145.788  26.884  0.00  0.00    +0.210 HD
ENDBRANCH  42  51
ENDBRANCH  40  41
ENDBRANCH  39  40
ENDBRANCH  38  39
TORSDOF 16
ENDMDL
MODEL 2
REMARK VINA RESULT:      -7.7      1.327      1.698
REMARK  Name = 5280805
REMARK                            x       y       z     vdW  Elec       q    Type
REMARK                         _______ _______ _______ _____ _____    ______ ____
ROOT
ATOM      1  O   LIG    1       12.937 148.027  32.867  0.00  0.00    -0.331 OA
ATOM      2  C   LIG    1       13.984 148.716  33.546  0.00  0.00    +0.340 C 
ATOM      3  C   LIG    1       14.297 148.038  34.880  0.00  0.00    +0.214 C 
ATOM      4  C   LIG    1       14.594 146.550  34.691  0.00  0.00    +0.180 C 
ATOM      5  C   LIG    1       13.529 145.879  33.823  0.00  0.00    +0.177 C 
ATOM     38  C   LIG    1       13.289 146.681  32.541  0.00  0.00    +0.179 C 
ENDROOT
BRANCH   5   6
ATOM      6  O   LIG    1       13.960 144.564  33.482  0.00  0.00    -0.386 OA
ATOM      7  H   LIG    1       14.301 144.586  32.573  0.00  0.00    +0.210 HD
ENDBRANCH   5   6
BRANCH   4   8
ATOM      8  O   LIG    1       14.598 145.901  35.964  0.00  0.00    -0.386 OA
ATOM      9  H   LIG    1       15.416 145.377  36.021  0.00  0.00    +0.210 HD
ENDBRANCH   4   8
BRANCH   3  10
ATOM     10  O   LIG    1       15.436 148.680  35.453  0.00  0.00    -0.383 OA
ATOM     11  H   LIG    1       16.175 148.597  34.827  0.00  0.00    +0.210 HD
ENDBRANCH   3  10
BRANCH   2  12
ATOM     12  O   LIG    1       13.580 150.057  33.819  0.00  0.00    -0.453 OA
BRANCH  12  13
ATOM     13  C   LIG    1       14.172 150.951  32.953  0.00  0.00    +0.214 A 
ATOM     14  C   LIG    1       15.559 151.387  33.242  0.00  0.00    +0.238 A 
ATOM     15  C   LIG    1       16.162 152.325  32.282  0.00  0.00    +0.109 A 
ATOM     16  C   LIG    1       17.464 152.797  32.467  0.00  0.00    +0.135 A 
ATOM     17  C   LIG    1       18.012 153.684  31.539  0.00  0.00    +0.091 A 
ATOM     18  C   LIG    1       17.264 154.096  30.436  0.00  0.00    +0.124 A 
ATOM     19  C   LIG    1       15.965 153.622  30.254  0.00  0.00    +0.092 A 
ATOM     24  C   LIG    1       15.414 152.735  31.181  0.00  0.00    +0.147 A 
ATOM     25  O   LIG    1       14.134 152.304  30.949  0.00  0.00    -0.451 OA
ATOM     26  O   LIG    1       16.170 150.988  34.225  0.00  0.00    -0.283 OA
ATOM     27  C   LIG    1       13.556 151.430  31.857  0.00  0.00    +0.181 A 
BRANCH  27  28
ATOM     28  C   LIG    1       12.182 151.046  31.490  0.00  0.00    +0.025 A 
ATOM     29  C   LIG    1       11.095 151.692  32.078  0.00  0.00    +0.015 A 
ATOM     30  C   LIG    1        9.794 151.328  31.730  0.00  0.00    +0.050 A 
ATOM     31  C   LIG    1        9.579 150.317  30.794  0.00  0.00    +0.158 A 
ATOM     32  C   LIG    1       10.665 149.670  30.205  0.00  0.00    +0.159 A 
ATOM     37  C   LIG    1       11.966 150.034  30.553  0.00  0.00    +0.060 A 
BRANCH  32  33
ATOM     33  O   LIG    1       10.468 148.681  29.289  0.00  0.00    -0.503 OA
ATOM     34  H   LIG    1       10.235 147.856  29.744  0.00  0.00    +0.292 HD
ENDBRANCH  32  33
BRANCH  31  35
ATOM     35  O   LIG    1        8.305 149.969  30.464  0.00  0.00    -0.503 OA
ATOM     36  H   LIG    1        7.802 149.765  31.268  0.00  0.00    +0.292 HD
ENDBRANCH  31  35
ENDBRANCH  27  28
BRANCH  18  20
ATOM     20  O   LIG    1       17.803 154.961  29.533  0.00  0.00    -0.507 OA
ATOM     21  H   LIG    1       17.144 155.149  28.844  0.00  0.00    +0.292 HD
ENDBRANCH  18  20
BRANCH  16  22
ATOM     22  O   LIG    1       18.237 152.427  33.525  0.00  0.00    -0.506 OA
ATOM     23  H   LIG    1       19.137 152.225  33.215  0.00  0.00    +0.292 HD
ENDBRANCH  16  22
ENDBRANCH  12  13
ENDBRANCH   2  12
BRANCH  38  39
ATOM     39  C   LIG    1       12.150 146.095  31.714  0.00  0.00    +0.197 C 
BRANCH  39  40
ATOM     40  O   LIG    1       12.677 145.117  30.829  0.00  0.00    -0.346 OA
BRANCH  40  41
ATOM     41  C   LIG    1       12.144 145.260  29.516  0.00  0.00    +0.282 C 
ATOM     42  C   LIG    1       12.876 146.382  28.782  0.00  0.00    +0.201 C 
ATOM     43  C   LIG    1       14.309 145.968  28.443  0.00  0.00    +0.179 C 
ATOM     44  C   LIG    1       14.332 144.624  27.712  0.00  0.00    +0.174 C 
ATOM     45  C   LIG    1       13.532 143.580  28.503  0.00  0.00    +0.149 C 
ATOM     46  C   LIG    1       13.403 142.263  27.743  0.00  0.00    +0.041 C 
ATOM     53  O   LIG    1       12.203 144.042  28.767  0.00  0.00    -0.343 OA
BRANCH  44  47
ATOM     47  O   LIG    1       15.691 144.212  27.585  0.00  0.00    -0.387 OA
ATOM     48  H   LIG    1       15.695 143.277  27.318  0.00  0.00    +0.210 HD
ENDBRANCH  44  47
BRANCH  43  49
ATOM     49  O   LIG    1       14.919 146.960  27.620  0.00  0.00    -0.386 OA
ATOM     50  H   LIG    1       14.387 147.043  26.811  0.00  0.00    +0.210 HD
ENDBRANCH  43  49
BRANCH  42  51
ATOM     51  O   LIG    1       12.152 146.661  27.582  0.00  0.00    -0.384 OA
ATOM     52  H   LIG    1       11.249 146.930  27.823  0.00  0.00    +0.210 HD
ENDBRANCH  42  51
ENDBRANCH  40  41
ENDBRANCH  39  40
ENDBRANCH  38  39
TORSDOF 16
ENDMDL
MODEL 3
REMARK VINA RESULT:      -7.5      2.169      7.348
REMARK  Name = 5280805
REMARK                            x       y       z     vdW  Elec       q    Type
REMARK                         _______ _______ _______ _____ _____    ______ ____
ROOT
ATOM      1  O   LIG    1       13.527 147.415  32.214  0.00  0.00    -0.331 OA
ATOM      2  C   LIG    1       13.037 146.215  32.809  0.00  0.00    +0.340 C 
ATOM      3  C   LIG    1       13.939 145.781  33.964  0.00  0.00    +0.214 C 
ATOM      4  C   LIG    1       14.126 146.909  34.978  0.00  0.00    +0.180 C 
ATOM      5  C   LIG    1       14.496 148.221  34.285  0.00  0.00    +0.177 C 
ATOM     38  C   LIG    1       13.537 148.513  33.128  0.00  0.00    +0.179 C 
ENDROOT
BRANCH   5   6
ATOM      6  O   LIG    1       14.433 149.286  35.229  0.00  0.00    -0.386 OA
ATOM      7  H   LIG    1       14.873 148.992  36.045  0.00  0.00    +0.210 HD
ENDBRANCH   5   6
BRANCH   4   8
ATOM      8  O   LIG    1       15.184 146.571  35.877  0.00  0.00    -0.386 OA
ATOM      9  H   LIG    1       15.928 146.248  35.341  0.00  0.00    +0.210 HD
ENDBRANCH   4   8
BRANCH   3  10
ATOM     10  O   LIG    1       13.334 144.660  34.608  0.00  0.00    -0.383 OA
ATOM     11  H   LIG    1       14.016 144.212  35.137  0.00  0.00    +0.210 HD
ENDBRANCH   3  10
BRANCH   2  12
ATOM     12  O   LIG    1       13.027 145.167  31.840  0.00  0.00    -0.453 OA
BRANCH  12  13
ATOM     13  C   LIG    1       11.833 145.120  31.155  0.00  0.00    +0.214 A 
ATOM     14  C   LIG    1       10.579 145.282  31.928  0.00  0.00    +0.238 A 
ATOM     15  C   LIG    1        9.327 145.248  31.156  0.00  0.00    +0.109 A 
ATOM     16  C   LIG    1        8.091 145.390  31.793  0.00  0.00    +0.135 A 
ATOM     17  C   LIG    1        6.919 145.356  31.036  0.00  0.00    +0.091 A 
ATOM     18  C   LIG    1        6.982 145.182  29.653  0.00  0.00    +0.124 A 
ATOM     19  C   LIG    1        8.218 145.042  29.021  0.00  0.00    +0.092 A 
ATOM     24  C   LIG    1        9.391 145.075  29.775  0.00  0.00    +0.147 A 
ATOM     25  O   LIG    1       10.575 144.933  29.098  0.00  0.00    -0.451 OA
ATOM     26  O   LIG    1       10.585 145.437  33.142  0.00  0.00    -0.283 OA
ATOM     27  C   LIG    1       11.757 144.951  29.822  0.00  0.00    +0.181 A 
BRANCH  27  28
ATOM     28  C   LIG    1       12.952 144.789  28.975  0.00  0.00    +0.025 A 
ATOM     29  C   LIG    1       13.296 143.529  28.487  0.00  0.00    +0.015 A 
ATOM     30  C   LIG    1       14.427 143.376  27.685  0.00  0.00    +0.050 A 
ATOM     31  C   LIG    1       15.215 144.483  27.372  0.00  0.00    +0.158 A 
ATOM     32  C   LIG    1       14.871 145.743  27.859  0.00  0.00    +0.159 A 
ATOM     37  C   LIG    1       13.740 145.897  28.660  0.00  0.00    +0.060 A 
BRANCH  32  33
ATOM     33  O   LIG    1       15.632 146.833  27.558  0.00  0.00    -0.503 OA
ATOM     34  H   LIG    1       16.564 146.644  27.751  0.00  0.00    +0.292 HD
ENDBRANCH  32  33
BRANCH  31  35
ATOM     35  O   LIG    1       16.318 144.321  26.589  0.00  0.00    -0.503 OA
ATOM     36  H   LIG    1       16.800 143.525  26.864  0.00  0.00    +0.292 HD
ENDBRANCH  31  35
ENDBRANCH  27  28
BRANCH  18  20
ATOM     20  O   LIG    1        5.837 145.150  28.919  0.00  0.00    -0.507 OA
ATOM     21  H   LIG    1        5.074 145.169  29.522  0.00  0.00    +0.292 HD
ENDBRANCH  18  20
BRANCH  16  22
ATOM     22  O   LIG    1        7.973 145.562  33.139  0.00  0.00    -0.506 OA
ATOM     23  H   LIG    1        8.622 146.222  33.440  0.00  0.00    +0.292 HD
ENDBRANCH  16  22
ENDBRANCH  12  13
ENDBRANCH   2  12
BRANCH  38  39
ATOM     39  C   LIG    1       13.955 149.756  32.348  0.00  0.00    +0.197 C 
BRANCH  39  40
ATOM     40  O   LIG    1       12.798 150.525  32.050  0.00  0.00    -0.346 OA
BRANCH  40  41
ATOM     41  C   LIG    1       12.789 150.944  30.689  0.00  0.00    +0.282 C 
ATOM     42  C   LIG    1       12.646 149.728  29.775  0.00  0.00    +0.201 C 
ATOM     43  C   LIG    1       11.241 149.130  29.879  0.00  0.00    +0.179 C 
ATOM     44  C   LIG    1       10.173 150.202  29.663  0.00  0.00    +0.174 C 
ATOM     45  C   LIG    1       10.431 151.398  30.589  0.00  0.00    +0.149 C 
ATOM     46  C   LIG    1        9.476 152.556  30.308  0.00  0.00    +0.041 C 
ATOM     53  O   LIG    1       11.760 151.902  30.421  0.00  0.00    -0.343 OA
BRANCH  44  47
ATOM     47  O   LIG    1        8.901 149.624  29.946  0.00  0.00    -0.387 OA
ATOM     48  H   LIG    1        8.553 149.250  29.119  0.00  0.00    +0.210 HD
ENDBRANCH  44  47
BRANCH  43  49
ATOM     49  O   LIG    1       11.078 148.102  28.904  0.00  0.00    -0.386 OA
ATOM     50  H   LIG    1       11.335 147.260  29.317  0.00  0.00    +0.210 HD
ENDBRANCH  43  49
BRANCH  42  51
ATOM     51  O   LIG    1       12.894 150.159  28.436  0.00  0.00    -0.384 OA
ATOM     52  H   LIG    1       13.807 149.919  28.201  0.00  0.00    +0.210 HD
ENDBRANCH  42  51
ENDBRANCH  40  41
ENDBRANCH  39  40
ENDBRANCH  38  39
TORSDOF 16
ENDMDL
MODEL 4
REMARK VINA RESULT:      -7.4      4.931     11.065
REMARK  Name = 5280805
REMARK                            x       y       z     vdW  Elec       q    Type
REMARK                         _______ _______ _______ _____ _____    ______ ____
ROOT
ATOM      1  O   LIG    1       17.708 154.150  29.150  0.00  0.00    -0.331 OA
ATOM      2  C   LIG    1       16.443 153.514  29.320  0.00  0.00    +0.340 C 
ATOM      3  C   LIG    1       15.524 153.822  28.138  0.00  0.00    +0.214 C 
ATOM      4  C   LIG    1       16.191 153.468  26.809  0.00  0.00    +0.180 C 
ATOM      5  C   LIG    1       17.608 154.035  26.731  0.00  0.00    +0.177 C 
ATOM     38  C   LIG    1       18.403 153.685  27.991  0.00  0.00    +0.179 C 
ENDROOT
BRANCH   5   6
ATOM      6  O   LIG    1       18.270 153.494  25.591  0.00  0.00    -0.386 OA
ATOM      7  H   LIG    1       17.774 153.761  24.799  0.00  0.00    +0.210 HD
ENDBRANCH   5   6
BRANCH   4   8
ATOM      8  O   LIG    1       15.433 154.025  25.733  0.00  0.00    -0.386 OA
ATOM      9  H   LIG    1       14.970 154.807  26.078  0.00  0.00    +0.210 HD
ENDBRANCH   4   8
BRANCH   3  10
ATOM     10  O   LIG    1       14.329 153.057  28.288  0.00  0.00    -0.383 OA
ATOM     11  H   LIG    1       14.450 152.214  27.820  0.00  0.00    +0.210 HD
ENDBRANCH   3  10
BRANCH   2  12
ATOM     12  O   LIG    1       15.815 154.001  30.505  0.00  0.00    -0.453 OA
BRANCH  12  13
ATOM     13  C   LIG    1       15.841 153.065  31.515  0.00  0.00    +0.214 A 
ATOM     14  C   LIG    1       14.731 152.086  31.588  0.00  0.00    +0.238 A 
ATOM     15  C   LIG    1       14.808 151.090  32.668  0.00  0.00    +0.109 A 
ATOM     16  C   LIG    1       13.808 150.125  32.822  0.00  0.00    +0.135 A 
ATOM     17  C   LIG    1       13.908 149.191  33.854  0.00  0.00    +0.091 A 
ATOM     18  C   LIG    1       14.998 149.221  34.724  0.00  0.00    +0.124 A 
ATOM     19  C   LIG    1       15.994 150.185  34.566  0.00  0.00    +0.092 A 
ATOM     24  C   LIG    1       15.897 151.120  33.536  0.00  0.00    +0.147 A 
ATOM     25  O   LIG    1       16.906 152.042  33.430  0.00  0.00    -0.451 OA
ATOM     26  O   LIG    1       13.801 152.105  30.792  0.00  0.00    -0.283 OA
ATOM     27  C   LIG    1       16.833 152.991  32.423  0.00  0.00    +0.181 A 
BRANCH  27  28
ATOM     28  C   LIG    1       17.977 153.918  32.421  0.00  0.00    +0.025 A 
ATOM     29  C   LIG    1       17.833 155.208  32.934  0.00  0.00    +0.015 A 
ATOM     30  C   LIG    1       18.917 156.085  32.933  0.00  0.00    +0.050 A 
ATOM     31  C   LIG    1       20.146 155.674  32.418  0.00  0.00    +0.158 A 
ATOM     32  C   LIG    1       20.292 154.385  31.906  0.00  0.00    +0.159 A 
ATOM     37  C   LIG    1       19.208 153.508  31.907  0.00  0.00    +0.060 A 
BRANCH  32  33
ATOM     33  O   LIG    1       21.489 153.972  31.402  0.00  0.00    -0.503 OA
ATOM     34  H   LIG    1       22.145 153.926  32.116  0.00  0.00    +0.292 HD
ENDBRANCH  32  33
BRANCH  31  35
ATOM     35  O   LIG    1       21.197 156.540  32.421  0.00  0.00    -0.503 OA
ATOM     36  H   LIG    1       21.052 157.229  33.088  0.00  0.00    +0.292 HD
ENDBRANCH  31  35
ENDBRANCH  27  28
BRANCH  18  20
ATOM     20  O   LIG    1       15.091 148.307  35.729  0.00  0.00    -0.507 OA
ATOM     21  H   LIG    1       14.226 147.879  35.848  0.00  0.00    +0.292 HD
ENDBRANCH  18  20
BRANCH  16  22
ATOM     22  O   LIG    1       12.724 150.051  32.001  0.00  0.00    -0.506 OA
ATOM     23  H   LIG    1       12.329 150.935  31.905  0.00  0.00    +0.292 HD
ENDBRANCH  16  22
ENDBRANCH  12  13
ENDBRANCH   2  12
BRANCH  38  39
ATOM     39  C   LIG    1       19.782 154.338  27.989  0.00  0.00    +0.197 C 
BRANCH  39  40
ATOM     40  O   LIG    1       19.663 155.667  27.501  0.00  0.00    -0.346 OA
BRANCH  40  41
ATOM     41  C   LIG    1       20.851 156.416  27.735  0.00  0.00    +0.282 C 
ATOM     42  C   LIG    1       22.008 155.808  26.944  0.00  0.00    +0.201 C 
ATOM     43  C   LIG    1       21.831 156.052  25.444  0.00  0.00    +0.179 C 
ATOM     44  C   LIG    1       21.588 157.533  25.155  0.00  0.00    +0.174 C 
ATOM     45  C   LIG    1       20.443 158.061  26.030  0.00  0.00    +0.149 C 
ATOM     46  C   LIG    1       20.260 159.569  25.884  0.00  0.00    +0.041 C 
ATOM     53  O   LIG    1       20.694 157.802  27.416  0.00  0.00    -0.343 OA
BRANCH  44  47
ATOM     47  O   LIG    1       21.257 157.667  23.775  0.00  0.00    -0.387 OA
ATOM     48  H   LIG    1       22.043 157.428  23.255  0.00  0.00    +0.210 HD
ENDBRANCH  44  47
BRANCH  43  49
ATOM     49  O   LIG    1       22.995 155.621  24.742  0.00  0.00    -0.386 OA
ATOM     50  H   LIG    1       22.856 154.695  24.479  0.00  0.00    +0.210 HD
ENDBRANCH  43  49
BRANCH  42  51
ATOM     51  O   LIG    1       23.215 156.422  27.398  0.00  0.00    -0.384 OA
ATOM     52  H   LIG    1       23.446 157.138  26.781  0.00  0.00    +0.210 HD
ENDBRANCH  42  51
ENDBRANCH  40  41
ENDBRANCH  39  40
ENDBRANCH  38  39
TORSDOF 16
ENDMDL
MODEL 5
REMARK VINA RESULT:      -7.3      7.130     12.040
REMARK  Name = 5280805
REMARK                            x       y       z     vdW  Elec       q    Type
REMARK                         _______ _______ _______ _____ _____    ______ ____
ROOT
ATOM      1  O   LIG    1       20.148 155.973  30.389  0.00  0.00    -0.331 OA
ATOM      2  C   LIG    1       21.316 155.577  31.105  0.00  0.00    +0.340 C 
ATOM      3  C   LIG    1       20.938 154.988  32.465  0.00  0.00    +0.214 C 
ATOM      4  C   LIG    1       19.922 153.855  32.316  0.00  0.00    +0.180 C 
ATOM      5  C   LIG    1       18.762 154.267  31.410  0.00  0.00    +0.177 C 
ATOM     38  C   LIG    1       19.281 154.874  30.104  0.00  0.00    +0.179 C 
ENDROOT
BRANCH   5   6
ATOM      6  O   LIG    1       17.966 153.122  31.114  0.00  0.00    -0.386 OA
ATOM      7  H   LIG    1       17.641 152.756  31.953  0.00  0.00    +0.210 HD
ENDBRANCH   5   6
BRANCH   4   8
ATOM      8  O   LIG    1       19.385 153.527  33.599  0.00  0.00    -0.386 OA
ATOM      9  H   LIG    1       18.665 154.155  33.782  0.00  0.00    +0.210 HD
ENDBRANCH   4   8
BRANCH   3  10
ATOM     10  O   LIG    1       22.123 154.485  33.080  0.00  0.00    -0.383 OA
ATOM     11  H   LIG    1       22.667 154.069  32.391  0.00  0.00    +0.210 HD
ENDBRANCH   3  10
BRANCH   2  12
ATOM     12  O   LIG    1       22.149 156.713  31.335  0.00  0.00    -0.453 OA
BRANCH  12  13
ATOM     13  C   LIG    1       23.376 156.573  30.724  0.00  0.00    +0.214 A 
ATOM     14  C   LIG    1       24.565 156.375  31.587  0.00  0.00    +0.238 A 
ATOM     15  C   LIG    1       25.853 156.209  30.895  0.00  0.00    +0.109 A 
ATOM     16  C   LIG    1       27.033 156.019  31.619  0.00  0.00    +0.135 A 
ATOM     17  C   LIG    1       28.241 155.862  30.936  0.00  0.00    +0.091 A 
ATOM     18  C   LIG    1       28.268 155.894  29.542  0.00  0.00    +0.124 A 
ATOM     19  C   LIG    1       27.088 156.083  28.823  0.00  0.00    +0.092 A 
ATOM     24  C   LIG    1       25.879 156.241  29.502  0.00  0.00    +0.147 A 
ATOM     25  O   LIG    1       24.753 156.423  28.742  0.00  0.00    -0.451 OA
ATOM     26  O   LIG    1       24.480 156.350  32.807  0.00  0.00    -0.283 OA
ATOM     27  C   LIG    1       23.538 156.593  29.388  0.00  0.00    +0.181 A 
BRANCH  27  28
ATOM     28  C   LIG    1       22.412 156.778  28.456  0.00  0.00    +0.025 A 
ATOM     29  C   LIG    1       21.785 158.020  28.356  0.00  0.00    +0.015 A 
ATOM     30  C   LIG    1       20.720 158.194  27.474  0.00  0.00    +0.050 A 
ATOM     31  C   LIG    1       20.279 157.126  26.692  0.00  0.00    +0.158 A 
ATOM     32  C   LIG    1       20.905 155.884  26.791  0.00  0.00    +0.159 A 
ATOM     37  C   LIG    1       21.972 155.710  27.674  0.00  0.00    +0.060 A 
BRANCH  32  33
ATOM     33  O   LIG    1       20.485 154.834  26.032  0.00  0.00    -0.503 OA
ATOM     34  H   LIG    1       19.892 155.153  25.333  0.00  0.00    +0.292 HD
ENDBRANCH  32  33
BRANCH  31  35
ATOM     35  O   LIG    1       19.236 157.308  25.835  0.00  0.00    -0.503 OA
ATOM     36  H   LIG    1       18.599 157.929  26.222  0.00  0.00    +0.292 HD
ENDBRANCH  31  35
ENDBRANCH  27  28
BRANCH  18  20
ATOM     20  O   LIG    1       29.448 155.740  28.881  0.00  0.00    -0.507 OA
ATOM     21  H   LIG    1       29.272 155.704  27.925  0.00  0.00    +0.292 HD
ENDBRANCH  18  20
BRANCH  16  22
ATOM     22  O   LIG    1       27.062 155.979  32.980  0.00  0.00    -0.506 OA
ATOM     23  H   LIG    1       26.732 156.821  33.336  0.00  0.00    +0.292 HD
ENDBRANCH  16  22
ENDBRANCH  12  13
ENDBRANCH   2  12
BRANCH  38  39
ATOM     39  C   LIG    1       18.144 155.399  29.233  0.00  0.00    +0.197 C 
BRANCH  39  40
ATOM     40  O   LIG    1       17.798 154.406  28.277  0.00  0.00    -0.346 OA
BRANCH  40  41
ATOM     41  C   LIG    1       16.677 154.805  27.495  0.00  0.00    +0.282 C 
ATOM     42  C   LIG    1       16.269 153.667  26.561  0.00  0.00    +0.201 C 
ATOM     43  C   LIG    1       15.647 152.512  27.348  0.00  0.00    +0.179 C 
ATOM     44  C   LIG    1       14.520 153.011  28.254  0.00  0.00    +0.174 C 
ATOM     45  C   LIG    1       15.015 154.181  29.115  0.00  0.00    +0.149 C 
ATOM     46  C   LIG    1       13.886 154.808  29.930  0.00  0.00    +0.041 C 
ATOM     53  O   LIG    1       15.570 155.220  28.301  0.00  0.00    -0.343 OA
BRANCH  44  47
ATOM     47  O   LIG    1       14.106 151.928  29.084  0.00  0.00    -0.387 OA
ATOM     48  H   LIG    1       14.900 151.549  29.498  0.00  0.00    +0.210 HD
ENDBRANCH  44  47
BRANCH  43  49
ATOM     49  O   LIG    1       15.128 151.535  26.449  0.00  0.00    -0.386 OA
ATOM     50  H   LIG    1       15.705 151.517  25.666  0.00  0.00    +0.210 HD
ENDBRANCH  43  49
BRANCH  42  51
ATOM     51  O   LIG    1       15.320 154.188  25.630  0.00  0.00    -0.384 OA
ATOM     52  H   LIG    1       14.608 154.624  26.129  0.00  0.00    +0.210 HD
ENDBRANCH  42  51
ENDBRANCH  40  41
ENDBRANCH  39  40
ENDBRANCH  38  39
TORSDOF 16
ENDMDL
MODEL 6
REMARK VINA RESULT:      -7.3     18.092     21.588
REMARK  Name = 5280805
REMARK                            x       y       z     vdW  Elec       q    Type
REMARK                         _______ _______ _______ _____ _____    ______ ____
ROOT
ATOM      1  O   LIG    1       19.255 165.388  20.565  0.00  0.00    -0.331 OA
ATOM      2  C   LIG    1       20.344 166.215  20.970  0.00  0.00    +0.340 C 
ATOM      3  C   LIG    1       20.457 167.438  20.059  0.00  0.00    +0.214 C 
ATOM      4  C   LIG    1       19.132 168.198  19.984  0.00  0.00    +0.180 C 
ATOM      5  C   LIG    1       17.965 167.251  19.705  0.00  0.00    +0.177 C 
ATOM     38  C   LIG    1       17.996 166.055  20.661  0.00  0.00    +0.179 C 
ENDROOT
BRANCH   5   6
ATOM      6  O   LIG    1       16.737 167.955  19.872  0.00  0.00    -0.386 OA
ATOM      7  H   LIG    1       16.706 168.666  19.209  0.00  0.00    +0.210 HD
ENDBRANCH   5   6
BRANCH   4   8
ATOM      8  O   LIG    1       19.191 169.151  18.920  0.00  0.00    -0.386 OA
ATOM      9  H   LIG    1       19.469 168.676  18.119  0.00  0.00    +0.210 HD
ENDBRANCH   4   8
BRANCH   3  10
ATOM     10  O   LIG    1       21.467 168.297  20.585  0.00  0.00    -0.383 OA
ATOM     11  H   LIG    1       22.333 167.933  20.334  0.00  0.00    +0.210 HD
ENDBRANCH   3  10
BRANCH   2  12
ATOM     12  O   LIG    1       21.566 165.483  20.876  0.00  0.00    -0.453 OA
BRANCH  12  13
ATOM     13  C   LIG    1       22.067 165.171  22.120  0.00  0.00    +0.214 A 
ATOM     14  C   LIG    1       23.086 166.074  22.708  0.00  0.00    +0.238 A 
ATOM     15  C   LIG    1       23.579 165.718  24.047  0.00  0.00    +0.109 A 
ATOM     16  C   LIG    1       24.542 166.504  24.686  0.00  0.00    +0.135 A 
ATOM     17  C   LIG    1       24.991 166.144  25.958  0.00  0.00    +0.091 A 
ATOM     18  C   LIG    1       24.482 165.007  26.585  0.00  0.00    +0.124 A 
ATOM     19  C   LIG    1       23.520 164.225  25.945  0.00  0.00    +0.092 A 
ATOM     24  C   LIG    1       23.070 164.582  24.673  0.00  0.00    +0.147 A 
ATOM     25  O   LIG    1       22.124 163.776  24.095  0.00  0.00    -0.451 OA
ATOM     26  O   LIG    1       23.492 167.062  22.112  0.00  0.00    -0.283 OA
ATOM     27  C   LIG    1       21.664 164.099  22.828  0.00  0.00    +0.181 A 
BRANCH  27  28
ATOM     28  C   LIG    1       20.653 163.154  22.325  0.00  0.00    +0.025 A 
ATOM     29  C   LIG    1       19.366 163.155  22.863  0.00  0.00    +0.015 A 
ATOM     30  C   LIG    1       18.408 162.261  22.387  0.00  0.00    +0.050 A 
ATOM     31  C   LIG    1       18.737 161.362  21.372  0.00  0.00    +0.158 A 
ATOM     32  C   LIG    1       20.023 161.359  20.833  0.00  0.00    +0.159 A 
ATOM     37  C   LIG    1       20.981 162.255  21.309  0.00  0.00    +0.060 A 
BRANCH  32  33
ATOM     33  O   LIG    1       20.356 160.488  19.840  0.00  0.00    -0.503 OA
ATOM     34  H   LIG    1       19.755 160.605  19.087  0.00  0.00    +0.292 HD
ENDBRANCH  32  33
BRANCH  31  35
ATOM     35  O   LIG    1       17.794 160.491  20.916  0.00  0.00    -0.503 OA
ATOM     36  H   LIG    1       17.008 160.533  21.483  0.00  0.00    +0.292 HD
ENDBRANCH  31  35
ENDBRANCH  27  28
BRANCH  18  20
ATOM     20  O   LIG    1       24.922 164.660  27.826  0.00  0.00    -0.507 OA
ATOM     21  H   LIG    1       24.245 164.901  28.480  0.00  0.00    +0.292 HD
ENDBRANCH  18  20
BRANCH  16  22
ATOM     22  O   LIG    1       25.072 167.623  24.118  0.00  0.00    -0.506 OA
ATOM     23  H   LIG    1       25.832 167.925  24.645  0.00  0.00    +0.292 HD
ENDBRANCH  16  22
ENDBRANCH  12  13
ENDBRANCH   2  12
BRANCH  38  39
ATOM     39  C   LIG    1       16.910 165.037  20.328  0.00  0.00    +0.197 C 
BRANCH  39  40
ATOM     40  O   LIG    1       16.877 164.840  18.921  0.00  0.00    -0.346 OA
BRANCH  40  41
ATOM     41  C   LIG    1       16.772 163.459  18.592  0.00  0.00    +0.282 C 
ATOM     42  C   LIG    1       15.558 162.852  19.294  0.00  0.00    +0.201 C 
ATOM     43  C   LIG    1       14.257 163.372  18.680  0.00  0.00    +0.179 C 
ATOM     44  C   LIG    1       14.256 163.188  17.162  0.00  0.00    +0.174 C 
ATOM     45  C   LIG    1       15.533 163.786  16.558  0.00  0.00    +0.149 C 
ATOM     46  C   LIG    1       15.648 163.499  15.063  0.00  0.00    +0.041 C 
ATOM     53  O   LIG    1       16.701 163.239  17.179  0.00  0.00    -0.343 OA
BRANCH  44  47
ATOM     47  O   LIG    1       13.106 163.848  16.637  0.00  0.00    -0.387 OA
ATOM     48  H   LIG    1       12.414 163.830  17.319  0.00  0.00    +0.210 HD
ENDBRANCH  44  47
BRANCH  43  49
ATOM     49  O   LIG    1       13.145 162.675  19.238  0.00  0.00    -0.386 OA
ATOM     50  H   LIG    1       13.236 161.736  19.004  0.00  0.00    +0.210 HD
ENDBRANCH  43  49
BRANCH  42  51
ATOM     51  O   LIG    1       15.634 161.433  19.145  0.00  0.00    -0.384 OA
ATOM     52  H   LIG    1       16.503 161.210  18.769  0.00  0.00    +0.210 HD
ENDBRANCH  42  51
ENDBRANCH  40  41
ENDBRANCH  39  40
ENDBRANCH  38  39
TORSDOF 16
ENDMDL
MODEL 7
REMARK VINA RESULT:      -7.1     18.144     22.022
REMARK  Name = 5280805
REMARK                            x       y       z     vdW  Elec       q    Type
REMARK                         _______ _______ _______ _____ _____    ______ ____
ROOT
ATOM      1  O   LIG    1       20.447 164.094  20.767  0.00  0.00    -0.331 OA
ATOM      2  C   LIG    1       19.150 163.595  20.447  0.00  0.00    +0.340 C 
ATOM      3  C   LIG    1       19.161 162.067  20.390  0.00  0.00    +0.214 C 
ATOM      4  C   LIG    1       19.725 161.467  21.677  0.00  0.00    +0.180 C 
ATOM      5  C   LIG    1       21.040 162.140  22.073  0.00  0.00    +0.177 C 
ATOM     38  C   LIG    1       20.897 163.663  22.053  0.00  0.00    +0.179 C 
ENDROOT
BRANCH   5   6
ATOM      6  O   LIG    1       21.408 161.719  23.384  0.00  0.00    -0.386 OA
ATOM      7  H   LIG    1       22.252 162.145  23.610  0.00  0.00    +0.210 HD
ENDBRANCH   5   6
BRANCH   4   8
ATOM      8  O   LIG    1       19.984 160.075  21.480  0.00  0.00    -0.386 OA
ATOM      9  H   LIG    1       19.472 159.791  20.703  0.00  0.00    +0.210 HD
ENDBRANCH   4   8
BRANCH   3  10
ATOM     10  O   LIG    1       17.820 161.616  20.204  0.00  0.00    -0.383 OA
ATOM     11  H   LIG    1       17.735 160.743  20.623  0.00  0.00    +0.210 HD
ENDBRANCH   3  10
BRANCH   2  12
ATOM     12  O   LIG    1       18.749 164.080  19.166  0.00  0.00    -0.453 OA
BRANCH  12  13
ATOM     13  C   LIG    1       18.384 165.407  19.219  0.00  0.00    +0.214 A 
ATOM     14  C   LIG    1       19.347 166.416  18.716  0.00  0.00    +0.238 A 
ATOM     15  C   LIG    1       18.910 167.820  18.770  0.00  0.00    +0.109 A 
ATOM     16  C   LIG    1       19.747 168.846  18.322  0.00  0.00    +0.135 A 
ATOM     17  C   LIG    1       19.306 170.169  18.382  0.00  0.00    +0.091 A 
ATOM     18  C   LIG    1       18.039 170.463  18.885  0.00  0.00    +0.124 A 
ATOM     19  C   LIG    1       17.206 169.436  19.331  0.00  0.00    +0.092 A 
ATOM     24  C   LIG    1       17.645 168.113  19.272  0.00  0.00    +0.147 A 
ATOM     25  O   LIG    1       16.782 167.148  19.724  0.00  0.00    -0.451 OA
ATOM     26  O   LIG    1       20.445 166.098  18.280  0.00  0.00    -0.283 OA
ATOM     27  C   LIG    1       17.193 165.824  19.688  0.00  0.00    +0.181 A 
BRANCH  27  28
ATOM     28  C   LIG    1       16.174 164.892  20.200  0.00  0.00    +0.025 A 
ATOM     29  C   LIG    1       16.058 164.668  21.572  0.00  0.00    +0.015 A 
ATOM     30  C   LIG    1       15.093 163.786  22.056  0.00  0.00    +0.050 A 
ATOM     31  C   LIG    1       14.244 163.125  21.169  0.00  0.00    +0.158 A 
ATOM     32  C   LIG    1       14.358 163.348  19.797  0.00  0.00    +0.159 A 
ATOM     37  C   LIG    1       15.323 164.231  19.313  0.00  0.00    +0.060 A 
BRANCH  32  33
ATOM     33  O   LIG    1       13.533 162.710  18.920  0.00  0.00    -0.503 OA
ATOM     34  H   LIG    1       13.791 162.930  18.011  0.00  0.00    +0.292 HD
ENDBRANCH  32  33
BRANCH  31  35
ATOM     35  O   LIG    1       13.306 162.264  21.654  0.00  0.00    -0.503 OA
ATOM     36  H   LIG    1       12.816 161.865  20.918  0.00  0.00    +0.292 HD
ENDBRANCH  31  35
ENDBRANCH  27  28
BRANCH  18  20
ATOM     20  O   LIG    1       17.613 171.755  18.941  0.00  0.00    -0.507 OA
ATOM     21  H   LIG    1       17.048 171.867  19.724  0.00  0.00    +0.292 HD
ENDBRANCH  18  20
BRANCH  16  22
ATOM     22  O   LIG    1       20.992 168.613  17.821  0.00  0.00    -0.506 OA
ATOM     23  H   LIG    1       21.614 169.270  18.179  0.00  0.00    +0.292 HD
ENDBRANCH  16  22
ENDBRANCH  12  13
ENDBRANCH   2  12
BRANCH  38  39
ATOM     39  C   LIG    1       22.226 164.359  22.330  0.00  0.00    +0.197 C 
BRANCH  39  40
ATOM     40  O   LIG    1       22.551 164.203  23.704  0.00  0.00    -0.346 OA
BRANCH  40  41
ATOM     41  C   LIG    1       23.956 164.072  23.895  0.00  0.00    +0.282 C 
ATOM     42  C   LIG    1       24.671 165.295  23.324  0.00  0.00    +0.201 C 
ATOM     43  C   LIG    1       24.400 166.534  24.180  0.00  0.00    +0.179 C 
ATOM     44  C   LIG    1       24.711 166.261  25.652  0.00  0.00    +0.174 C 
ATOM     45  C   LIG    1       23.988 164.990  26.116  0.00  0.00    +0.149 C 
ATOM     46  C   LIG    1       24.383 164.594  27.537  0.00  0.00    +0.041 C 
ATOM     53  O   LIG    1       24.304 163.879  25.270  0.00  0.00    -0.343 OA
BRANCH  44  47
ATOM     47  O   LIG    1       24.273 167.384  26.413  0.00  0.00    -0.387 OA
ATOM     48  H   LIG    1       23.374 167.196  26.731  0.00  0.00    +0.210 HD
ENDBRANCH  44  47
BRANCH  43  49
ATOM     49  O   LIG    1       25.201 167.623  23.725  0.00  0.00    -0.386 OA
ATOM     50  H   LIG    1       24.763 168.008  22.947  0.00  0.00    +0.210 HD
ENDBRANCH  43  49
BRANCH  42  51
ATOM     51  O   LIG    1       26.071 165.012  23.305  0.00  0.00    -0.384 OA
ATOM     52  H   LIG    1       26.554 165.849  23.416  0.00  0.00    +0.210 HD
ENDBRANCH  42  51
ENDBRANCH  40  41
ENDBRANCH  39  40
ENDBRANCH  38  39
TORSDOF 16
ENDMDL
MODEL 8
REMARK VINA RESULT:      -6.9     16.365     21.827
REMARK  Name = 5280805
REMARK                            x       y       z     vdW  Elec       q    Type
REMARK                         _______ _______ _______ _____ _____    ______ ____
ROOT
ATOM      1  O   LIG    1       18.556 164.193  20.175  0.00  0.00    -0.331 OA
ATOM      2  C   LIG    1       19.222 164.854  19.101  0.00  0.00    +0.340 C 
ATOM      3  C   LIG    1       19.303 163.941  17.877  0.00  0.00    +0.214 C 
ATOM      4  C   LIG    1       17.922 163.417  17.483  0.00  0.00    +0.180 C 
ATOM      5  C   LIG    1       17.174 162.860  18.695  0.00  0.00    +0.177 C 
ATOM     38  C   LIG    1       17.204 163.857  19.856  0.00  0.00    +0.179 C 
ENDROOT
BRANCH   5   6
ATOM      6  O   LIG    1       15.821 162.598  18.334  0.00  0.00    -0.386 OA
ATOM      7  H   LIG    1       15.538 161.789  18.793  0.00  0.00    +0.210 HD
ENDBRANCH   5   6
BRANCH   4   8
ATOM      8  O   LIG    1       18.068 162.360  16.532  0.00  0.00    -0.386 OA
ATOM      9  H   LIG    1       17.551 162.604  15.745  0.00  0.00    +0.210 HD
ENDBRANCH   4   8
BRANCH   3  10
ATOM     10  O   LIG    1       19.852 164.692  16.795  0.00  0.00    -0.383 OA
ATOM     11  H   LIG    1       20.772 164.408  16.667  0.00  0.00    +0.210 HD
ENDBRANCH   3  10
BRANCH   2  12
ATOM     12  O   LIG    1       20.554 165.184  19.492  0.00  0.00    -0.453 OA
BRANCH  12  13
ATOM     13  C   LIG    1       20.621 166.442  20.050  0.00  0.00    +0.214 A 
ATOM     14  C   LIG    1       19.964 167.560  19.331  0.00  0.00    +0.238 A 
ATOM     15  C   LIG    1       20.040 168.882  19.971  0.00  0.00    +0.109 A 
ATOM     16  C   LIG    1       19.454 170.001  19.371  0.00  0.00    +0.135 A 
ATOM     17  C   LIG    1       19.540 171.243  20.002  0.00  0.00    +0.091 A 
ATOM     18  C   LIG    1       20.206 171.366  21.221  0.00  0.00    +0.124 A 
ATOM     19  C   LIG    1       20.789 170.248  21.817  0.00  0.00    +0.092 A 
ATOM     24  C   LIG    1       20.706 169.005  21.188  0.00  0.00    +0.147 A 
ATOM     25  O   LIG    1       21.298 167.942  21.822  0.00  0.00    -0.451 OA
ATOM     26  O   LIG    1       19.388 167.391  18.264  0.00  0.00    -0.283 OA
ATOM     27  C   LIG    1       21.240 166.696  21.218  0.00  0.00    +0.181 A 
BRANCH  27  28
ATOM     28  C   LIG    1       21.913 165.646  22.002  0.00  0.00    +0.025 A 
ATOM     29  C   LIG    1       21.161 164.644  22.616  0.00  0.00    +0.015 A 
ATOM     30  C   LIG    1       21.798 163.649  23.358  0.00  0.00    +0.050 A 
ATOM     31  C   LIG    1       23.187 163.657  23.487  0.00  0.00    +0.158 A 
ATOM     32  C   LIG    1       23.939 164.658  22.873  0.00  0.00    +0.159 A 
ATOM     37  C   LIG    1       23.302 165.652  22.131  0.00  0.00    +0.060 A 
BRANCH  32  33
ATOM     33  O   LIG    1       25.297 164.675  22.991  0.00  0.00    -0.503 OA
ATOM     34  H   LIG    1       25.555 165.290  23.696  0.00  0.00    +0.292 HD
ENDBRANCH  32  33
BRANCH  31  35
ATOM     35  O   LIG    1       23.798 162.681  24.216  0.00  0.00    -0.503 OA
ATOM     36  H   LIG    1       24.745 162.660  24.005  0.00  0.00    +0.292 HD
ENDBRANCH  31  35
ENDBRANCH  27  28
BRANCH  18  20
ATOM     20  O   LIG    1       20.287 172.580  21.832  0.00  0.00    -0.507 OA
ATOM     21  H   LIG    1       20.799 172.487  22.653  0.00  0.00    +0.292 HD
ENDBRANCH  18  20
BRANCH  16  22
ATOM     22  O   LIG    1       18.792 169.935  18.183  0.00  0.00    -0.506 OA
ATOM     23  H   LIG    1       18.077 169.278  18.245  0.00  0.00    +0.292 HD
ENDBRANCH  16  22
ENDBRANCH  12  13
ENDBRANCH   2  12
BRANCH  38  39
ATOM     39  C   LIG    1       16.566 163.277  21.115  0.00  0.00    +0.197 C 
BRANCH  39  40
ATOM     40  O   LIG    1       17.580 162.692  21.919  0.00  0.00    -0.346 OA
BRANCH  40  41
ATOM     41  C   LIG    1       17.186 161.412  22.404  0.00  0.00    +0.282 C 
ATOM     42  C   LIG    1       17.825 160.318  21.550  0.00  0.00    +0.201 C 
ATOM     43  C   LIG    1       19.332 160.243  21.799  0.00  0.00    +0.179 C 
ATOM     44  C   LIG    1       19.636 160.127  23.293  0.00  0.00    +0.174 C 
ATOM     45  C   LIG    1       18.912 161.237  24.066  0.00  0.00    +0.149 C 
ATOM     46  C   LIG    1       19.066 161.076  25.577  0.00  0.00    +0.041 C 
ATOM     53  O   LIG    1       17.508 161.229  23.786  0.00  0.00    -0.343 OA
BRANCH  44  47
ATOM     47  O   LIG    1       21.046 160.241  23.470  0.00  0.00    -0.387 OA
ATOM     48  H   LIG    1       21.335 159.509  24.041  0.00  0.00    +0.210 HD
ENDBRANCH  44  47
BRANCH  43  49
ATOM     49  O   LIG    1       19.882 159.117  21.119  0.00  0.00    -0.386 OA
ATOM     50  H   LIG    1       19.980 159.355  20.182  0.00  0.00    +0.210 HD
ENDBRANCH  43  49
BRANCH  42  51
ATOM     51  O   LIG    1       17.211 159.077  21.903  0.00  0.00    -0.384 OA
ATOM     52  H   LIG    1       17.267 158.971  22.868  0.00  0.00    +0.210 HD
ENDBRANCH  42  51
ENDBRANCH  40  41
ENDBRANCH  39  40
ENDBRANCH  38  39
TORSDOF 16
ENDMDL
MODEL 9
REMARK VINA RESULT:      -6.9      2.291      7.111
REMARK  Name = 5280805
REMARK                            x       y       z     vdW  Elec       q    Type
REMARK                         _______ _______ _______ _____ _____    ______ ____
ROOT
ATOM      1  O   LIG    1       13.460 146.725  32.912  0.00  0.00    -0.331 OA
ATOM      2  C   LIG    1       12.726 145.530  33.167  0.00  0.00    +0.340 C 
ATOM      3  C   LIG    1       13.321 144.777  34.357  0.00  0.00    +0.214 C 
ATOM      4  C   LIG    1       13.430 145.679  35.587  0.00  0.00    +0.180 C 
ATOM      5  C   LIG    1       14.081 147.017  35.237  0.00  0.00    +0.177 C 
ATOM     38  C   LIG    1       13.414 147.640  34.008  0.00  0.00    +0.179 C 
ENDROOT
BRANCH   5   6
ATOM      6  O   LIG    1       13.954 147.906  36.343  0.00  0.00    -0.386 OA
ATOM      7  H   LIG    1       13.067 148.302  36.310  0.00  0.00    +0.210 HD
ENDBRANCH   5   6
BRANCH   4   8
ATOM      8  O   LIG    1       14.239 145.039  36.576  0.00  0.00    -0.386 OA
ATOM      9  H   LIG    1       15.164 145.276  36.392  0.00  0.00    +0.210 HD
ENDBRANCH   4   8
BRANCH   3  10
ATOM     10  O   LIG    1       12.473 143.668  34.656  0.00  0.00    -0.383 OA
ATOM     11  H   LIG    1       12.649 143.392  35.571  0.00  0.00    +0.210 HD
ENDBRANCH   3  10
BRANCH   2  12
ATOM     12  O   LIG    1       12.789 144.672  32.028  0.00  0.00    -0.453 OA
BRANCH  12  13
ATOM     13  C   LIG    1       11.607 144.679  31.321  0.00  0.00    +0.214 A 
ATOM     14  C   LIG    1       10.341 144.807  32.082  0.00  0.00    +0.238 A 
ATOM     15  C   LIG    1        9.103 144.832  31.288  0.00  0.00    +0.109 A 
ATOM     16  C   LIG    1        7.857 144.947  31.912  0.00  0.00    +0.135 A 
ATOM     17  C   LIG    1        6.698 144.970  31.134  0.00  0.00    +0.091 A 
ATOM     18  C   LIG    1        6.784 144.880  29.744  0.00  0.00    +0.124 A 
ATOM     19  C   LIG    1        8.029 144.766  29.125  0.00  0.00    +0.092 A 
ATOM     24  C   LIG    1        9.189 144.741  29.900  0.00  0.00    +0.147 A 
ATOM     25  O   LIG    1       10.383 144.628  29.236  0.00  0.00    -0.451 OA
ATOM     26  O   LIG    1       10.327 144.888  33.303  0.00  0.00    -0.283 OA
ATOM     27  C   LIG    1       11.553 144.592  29.979  0.00  0.00    +0.181 A 
BRANCH  27  28
ATOM     28  C   LIG    1       12.760 144.469  29.144  0.00  0.00    +0.025 A 
ATOM     29  C   LIG    1       13.574 145.581  28.927  0.00  0.00    +0.015 A 
ATOM     30  C   LIG    1       14.718 145.465  28.137  0.00  0.00    +0.050 A 
ATOM     31  C   LIG    1       15.047 144.237  27.562  0.00  0.00    +0.158 A 
ATOM     32  C   LIG    1       14.234 143.125  27.779  0.00  0.00    +0.159 A 
ATOM     37  C   LIG    1       13.091 143.241  28.570  0.00  0.00    +0.060 A 
BRANCH  32  33
ATOM     33  O   LIG    1       14.546 141.920  27.226  0.00  0.00    -0.503 OA
ATOM     34  H   LIG    1       13.817 141.295  27.371  0.00  0.00    +0.292 HD
ENDBRANCH  32  33
BRANCH  31  35
ATOM     35  O   LIG    1       16.165 144.136  26.791  0.00  0.00    -0.503 OA
ATOM     36  H   LIG    1       16.076 144.702  26.009  0.00  0.00    +0.292 HD
ENDBRANCH  31  35
ENDBRANCH  27  28
BRANCH  18  20
ATOM     20  O   LIG    1        5.651 144.904  28.990  0.00  0.00    -0.507 OA
ATOM     21  H   LIG    1        5.897 144.873  28.050  0.00  0.00    +0.292 HD
ENDBRANCH  18  20
BRANCH  16  22
ATOM     22  O   LIG    1        7.717 145.039  33.263  0.00  0.00    -0.506 OA
ATOM     23  H   LIG    1        8.528 145.412  33.648  0.00  0.00    +0.292 HD
ENDBRANCH  16  22
ENDBRANCH  12  13
ENDBRANCH   2  12
BRANCH  38  39
ATOM     39  C   LIG    1       14.122 148.918  33.568  0.00  0.00    +0.197 C 
BRANCH  39  40
ATOM     40  O   LIG    1       13.976 149.067  32.163  0.00  0.00    -0.346 OA
BRANCH  40  41
ATOM     41  C   LIG    1       13.057 150.106  31.842  0.00  0.00    +0.282 C 
ATOM     42  C   LIG    1       13.443 150.742  30.507  0.00  0.00    +0.201 C 
ATOM     43  C   LIG    1       13.173 149.781  29.348  0.00  0.00    +0.179 C 
ATOM     44  C   LIG    1       11.739 149.253  29.396  0.00  0.00    +0.174 C 
ATOM     45  C   LIG    1       11.435 148.681  30.787  0.00  0.00    +0.149 C 
ATOM     46  C   LIG    1        9.970 148.275  30.930  0.00  0.00    +0.041 C 
ATOM     53  O   LIG    1       11.703 149.646  31.810  0.00  0.00    -0.343 OA
BRANCH  44  47
ATOM     47  O   LIG    1       11.607 148.237  28.405  0.00  0.00    -0.387 OA
ATOM     48  H   LIG    1       11.248 147.444  28.837  0.00  0.00    +0.210 HD
ENDBRANCH  44  47
BRANCH  43  49
ATOM     49  O   LIG    1       13.386 150.448  28.105  0.00  0.00    -0.386 OA
ATOM     50  H   LIG    1       14.278 150.835  28.126  0.00  0.00    +0.210 HD
ENDBRANCH  43  49
BRANCH  42  51
ATOM     51  O   LIG    1       12.662 151.928  30.349  0.00  0.00    -0.384 OA
ATOM     52  H   LIG    1       12.591 152.124  29.399  0.00  0.00    +0.210 HD
ENDBRANCH  42  51
ENDBRANCH  40  41
ENDBRANCH  39  40
ENDBRANCH  38  39
TORSDOF 16
ENDMDL
