MODEL 1
REMARK VINA RESULT:      -8.1      0.000      0.000
REMARK  Name = 9823887
REMARK                            x       y       z     vdW  Elec       q    Type
REMARK                         _______ _______ _______ _____ _____    ______ ____
ROOT
ATOM      1  O   LIG    1       21.335 158.609  27.036  0.00  0.00    -0.341 OA
ATOM      2  C   LIG    1       22.227 157.568  27.428  0.00  0.00    +0.282 C 
ATOM      3  C   LIG    1       21.837 156.249  26.761  0.00  0.00    +0.201 C 
ATOM      4  C   LIG    1       21.735 156.401  25.244  0.00  0.00    +0.179 C 
ATOM      5  C   LIG    1       20.900 157.623  24.865  0.00  0.00    +0.177 C 
ATOM     22  C   LIG    1       21.371 158.862  25.631  0.00  0.00    +0.178 C 
ENDROOT
BRANCH   5   6
ATOM      6  O   LIG    1       21.020 157.861  23.464  0.00  0.00    -0.386 OA
ATOM      7  H   LIG    1       21.546 157.139  23.082  0.00  0.00    +0.210 HD
ENDBRANCH   5   6
BRANCH   4   8
ATOM      8  O   LIG    1       21.103 155.246  24.691  0.00  0.00    -0.386 OA
ATOM      9  H   LIG    1       20.149 155.326  24.862  0.00  0.00    +0.210 HD
ENDBRANCH   4   8
BRANCH   3  10
ATOM     10  O   LIG    1       22.835 155.278  27.074  0.00  0.00    -0.384 OA
ATOM     11  H   LIG    1       23.676 155.572  26.684  0.00  0.00    +0.210 HD
ENDBRANCH   3  10
BRANCH   2  12
ATOM     12  O   LIG    1       22.162 157.384  28.841  0.00  0.00    -0.345 OA
BRANCH  12  13
ATOM     13  C   LIG    1       22.619 158.534  29.534  0.00  0.00    +0.190 C 
BRANCH  13  14
ATOM     14  C   LIG    1       23.413 158.097  30.723  0.00  0.00    +0.001 C 
ATOM     15  C   LIG    1       23.505 156.817  31.118  0.00  0.00    +0.006 C 
BRANCH  15  16
ATOM     16  C   LIG    1       24.285 156.338  32.272  0.00  0.00    -0.025 A 
ATOM     17  C   LIG    1       23.620 155.843  33.382  0.00  0.00    +0.008 A 
ATOM     18  C   LIG    1       24.359 155.390  34.475  0.00  0.00    +0.001 A 
ATOM     19  C   LIG    1       25.752 155.439  34.444  0.00  0.00    +0.000 A 
ATOM     20  C   LIG    1       26.408 155.940  33.319  0.00  0.00    +0.001 A 
ATOM     21  C   LIG    1       25.669 156.393  32.226  0.00  0.00    +0.008 A 
ENDBRANCH  15  16
ENDBRANCH  13  14
ENDBRANCH  12  13
ENDBRANCH   2  12
BRANCH  22  23
ATOM     23  C   LIG    1       20.478 160.069  25.357  0.00  0.00    +0.197 C 
BRANCH  23  24
ATOM     24  O   LIG    1       21.156 160.939  24.469  0.00  0.00    -0.346 OA
BRANCH  24  25
ATOM     25  C   LIG    1       21.093 162.293  24.905  0.00  0.00    +0.281 C 
ATOM     26  C   LIG    1       22.314 162.617  25.780  0.00  0.00    +0.201 C 
ATOM     27  C   LIG    1       23.594 162.766  24.952  0.00  0.00    +0.178 C 
ATOM     28  C   LIG    1       23.349 163.702  23.767  0.00  0.00    +0.171 C 
ATOM     29  C   LIG    1       22.129 163.253  22.972  0.00  0.00    +0.197 C 
ATOM     36  O   LIG    1       20.975 163.205  23.807  0.00  0.00    -0.346 OA
BRANCH  28  30
ATOM     30  O   LIG    1       24.499 163.736  22.933  0.00  0.00    -0.387 OA
ATOM     31  H   LIG    1       25.272 163.548  23.492  0.00  0.00    +0.210 HD
ENDBRANCH  28  30
BRANCH  27  32
ATOM     32  O   LIG    1       24.001 161.488  24.467  0.00  0.00    -0.386 OA
ATOM     33  H   LIG    1       24.973 161.459  24.498  0.00  0.00    +0.210 HD
ENDBRANCH  27  32
BRANCH  26  34
ATOM     34  O   LIG    1       22.051 163.838  26.467  0.00  0.00    -0.384 OA
ATOM     35  H   LIG    1       22.045 164.562  25.819  0.00  0.00    +0.210 HD
ENDBRANCH  26  34
ENDBRANCH  24  25
ENDBRANCH  23  24
ENDBRANCH  22  23
TORSDOF 13
ENDMDL
MODEL 2
REMARK VINA RESULT:      -7.8     16.619     19.834
REMARK  Name = 9823887
REMARK                            x       y       z     vdW  Elec       q    Type
REMARK                         _______ _______ _______ _____ _____    ______ ____
ROOT
ATOM      1  O   LIG    1       13.088 143.502  28.371  0.00  0.00    -0.341 OA
ATOM      2  C   LIG    1       14.329 143.254  27.715  0.00  0.00    +0.282 C 
ATOM      3  C   LIG    1       14.923 144.559  27.184  0.00  0.00    +0.201 C 
ATOM      4  C   LIG    1       15.036 145.610  28.288  0.00  0.00    +0.179 C 
ATOM      5  C   LIG    1       13.731 145.731  29.073  0.00  0.00    +0.177 C 
ATOM     22  C   LIG    1       13.229 144.353  29.510  0.00  0.00    +0.178 C 
ENDROOT
BRANCH   5   6
ATOM      6  O   LIG    1       13.946 146.542  30.225  0.00  0.00    -0.386 OA
ATOM      7  H   LIG    1       13.109 146.591  30.718  0.00  0.00    +0.210 HD
ENDBRANCH   5   6
BRANCH   4   8
ATOM      8  O   LIG    1       15.322 146.883  27.706  0.00  0.00    -0.386 OA
ATOM      9  H   LIG    1       14.642 147.054  27.033  0.00  0.00    +0.210 HD
ENDBRANCH   4   8
BRANCH   3  10
ATOM     10  O   LIG    1       16.221 144.279  26.661  0.00  0.00    -0.384 OA
ATOM     11  H   LIG    1       16.223 143.364  26.333  0.00  0.00    +0.210 HD
ENDBRANCH   3  10
BRANCH   2  12
ATOM     12  O   LIG    1       14.123 142.381  26.607  0.00  0.00    -0.345 OA
BRANCH  12  13
ATOM     13  C   LIG    1       13.114 141.423  26.885  0.00  0.00    +0.190 C 
BRANCH  13  14
ATOM     14  C   LIG    1       13.765 140.110  27.180  0.00  0.00    +0.001 C 
ATOM     15  C   LIG    1       14.028 139.189  26.240  0.00  0.00    +0.006 C 
BRANCH  15  16
ATOM     16  C   LIG    1       14.680 137.890  26.482  0.00  0.00    -0.025 A 
ATOM     17  C   LIG    1       14.755 136.966  25.452  0.00  0.00    +0.008 A 
ATOM     18  C   LIG    1       15.372 135.737  25.682  0.00  0.00    +0.001 A 
ATOM     19  C   LIG    1       15.905 135.447  26.938  0.00  0.00    +0.000 A 
ATOM     20  C   LIG    1       15.821 136.386  27.965  0.00  0.00    +0.001 A 
ATOM     21  C   LIG    1       15.204 137.616  27.735  0.00  0.00    +0.008 A 
ENDBRANCH  15  16
ENDBRANCH  13  14
ENDBRANCH  12  13
ENDBRANCH   2  12
BRANCH  22  23
ATOM     23  C   LIG    1       11.868 144.438  30.194  0.00  0.00    +0.197 C 
BRANCH  23  24
ATOM     24  O   LIG    1       10.945 145.018  29.290  0.00  0.00    -0.346 OA
BRANCH  24  25
ATOM     25  C   LIG    1       10.187 146.055  29.903  0.00  0.00    +0.281 C 
ATOM     26  C   LIG    1        9.785 147.101  28.851  0.00  0.00    +0.201 C 
ATOM     27  C   LIG    1        8.667 146.595  27.934  0.00  0.00    +0.178 C 
ATOM     28  C   LIG    1        7.527 146.007  28.768  0.00  0.00    +0.171 C 
ATOM     29  C   LIG    1        8.059 144.970  29.749  0.00  0.00    +0.197 C 
ATOM     36  O   LIG    1        9.046 145.546  30.602  0.00  0.00    -0.346 OA
BRANCH  28  30
ATOM     30  O   LIG    1        6.553 145.426  27.912  0.00  0.00    -0.387 OA
ATOM     31  H   LIG    1        7.021 145.043  27.151  0.00  0.00    +0.210 HD
ENDBRANCH  28  30
BRANCH  27  32
ATOM     32  O   LIG    1        9.181 145.588  27.063  0.00  0.00    -0.386 OA
ATOM     33  H   LIG    1        8.423 145.090  26.711  0.00  0.00    +0.210 HD
ENDBRANCH  27  32
BRANCH  26  34
ATOM     34  O   LIG    1        9.341 148.269  29.537  0.00  0.00    -0.384 OA
ATOM     35  H   LIG    1        9.704 148.253  30.438  0.00  0.00    +0.210 HD
ENDBRANCH  26  34
ENDBRANCH  24  25
ENDBRANCH  23  24
ENDBRANCH  22  23
TORSDOF 13
ENDMDL
MODEL 3
REMARK VINA RESULT:      -7.3     16.227     20.173
REMARK  Name = 9823887
REMARK                            x       y       z     vdW  Elec       q    Type
REMARK                         _______ _______ _______ _____ _____    ______ ____
ROOT
ATOM      1  O   LIG    1       13.267 143.912  29.475  0.00  0.00    -0.341 OA
ATOM      2  C   LIG    1       13.530 145.285  29.196  0.00  0.00    +0.282 C 
ATOM      3  C   LIG    1       14.830 145.432  28.405  0.00  0.00    +0.201 C 
ATOM      4  C   LIG    1       14.817 144.565  27.147  0.00  0.00    +0.179 C 
ATOM      5  C   LIG    1       14.376 143.137  27.463  0.00  0.00    +0.177 C 
ATOM     22  C   LIG    1       13.087 143.137  28.288  0.00  0.00    +0.178 C 
ENDROOT
BRANCH   5   6
ATOM      6  O   LIG    1       14.156 142.430  26.245  0.00  0.00    -0.386 OA
ATOM      7  H   LIG    1       14.785 141.689  26.210  0.00  0.00    +0.210 HD
ENDBRANCH   5   6
BRANCH   4   8
ATOM      8  O   LIG    1       16.133 144.509  26.595  0.00  0.00    -0.386 OA
ATOM      9  H   LIG    1       16.172 143.730  26.013  0.00  0.00    +0.210 HD
ENDBRANCH   4   8
BRANCH   3  10
ATOM     10  O   LIG    1       14.976 146.803  28.035  0.00  0.00    -0.384 OA
ATOM     11  H   LIG    1       14.206 147.054  27.497  0.00  0.00    +0.210 HD
ENDBRANCH   3  10
BRANCH   2  12
ATOM     12  O   LIG    1       13.674 146.006  30.418  0.00  0.00    -0.345 OA
BRANCH  12  13
ATOM     13  C   LIG    1       12.490 145.944  31.198  0.00  0.00    +0.190 C 
BRANCH  13  14
ATOM     14  C   LIG    1       11.327 146.327  30.339  0.00  0.00    +0.001 C 
ATOM     15  C   LIG    1       10.614 147.448  30.522  0.00  0.00    +0.006 C 
BRANCH  15  16
ATOM     16  C   LIG    1        9.472 147.873  29.694  0.00  0.00    -0.025 A 
ATOM     17  C   LIG    1        8.645 146.912  29.133  0.00  0.00    +0.008 A 
ATOM     18  C   LIG    1        7.564 147.315  28.350  0.00  0.00    +0.001 A 
ATOM     19  C   LIG    1        7.324 148.672  28.135  0.00  0.00    +0.000 A 
ATOM     20  C   LIG    1        8.165 149.628  28.705  0.00  0.00    +0.001 A 
ATOM     21  C   LIG    1        9.247 149.225  29.490  0.00  0.00    +0.008 A 
ENDBRANCH  15  16
ENDBRANCH  13  14
ENDBRANCH  12  13
ENDBRANCH   2  12
BRANCH  22  23
ATOM     23  C   LIG    1       12.689 141.727  28.715  0.00  0.00    +0.197 C 
BRANCH  23  24
ATOM     24  O   LIG    1       13.425 140.797  27.941  0.00  0.00    -0.346 OA
BRANCH  24  25
ATOM     25  C   LIG    1       12.825 139.506  27.955  0.00  0.00    +0.281 C 
ATOM     26  C   LIG    1       11.447 139.562  27.276  0.00  0.00    +0.201 C 
ATOM     27  C   LIG    1       11.560 139.679  25.753  0.00  0.00    +0.178 C 
ATOM     28  C   LIG    1       12.532 138.628  25.214  0.00  0.00    +0.171 C 
ATOM     29  C   LIG    1       13.862 138.698  25.954  0.00  0.00    +0.197 C 
ATOM     36  O   LIG    1       13.668 138.516  27.355  0.00  0.00    -0.346 OA
BRANCH  28  30
ATOM     30  O   LIG    1       12.730 138.823  23.821  0.00  0.00    -0.387 OA
ATOM     31  H   LIG    1       12.016 139.401  23.501  0.00  0.00    +0.210 HD
ENDBRANCH  28  30
BRANCH  27  32
ATOM     32  O   LIG    1       12.032 140.980  25.407  0.00  0.00    -0.386 OA
ATOM     33  H   LIG    1       11.584 141.245  24.585  0.00  0.00    +0.210 HD
ENDBRANCH  27  32
BRANCH  26  34
ATOM     34  O   LIG    1       10.744 138.368  27.608  0.00  0.00    -0.384 OA
ATOM     35  H   LIG    1       10.427 138.441  28.523  0.00  0.00    +0.210 HD
ENDBRANCH  26  34
ENDBRANCH  24  25
ENDBRANCH  23  24
ENDBRANCH  22  23
TORSDOF 13
ENDMDL
MODEL 4
REMARK VINA RESULT:      -7.2     16.256     19.644
REMARK  Name = 9823887
REMARK                            x       y       z     vdW  Elec       q    Type
REMARK                         _______ _______ _______ _____ _____    ______ ____
ROOT
ATOM      1  O   LIG    1       12.941 143.650  28.421  0.00  0.00    -0.341 OA
ATOM      2  C   LIG    1       14.176 143.250  27.830  0.00  0.00    +0.282 C 
ATOM      3  C   LIG    1       14.842 144.433  27.128  0.00  0.00    +0.201 C 
ATOM      4  C   LIG    1       14.996 145.625  28.072  0.00  0.00    +0.179 C 
ATOM      5  C   LIG    1       13.690 145.923  28.806  0.00  0.00    +0.177 C 
ATOM     22  C   LIG    1       13.113 144.649  29.428  0.00  0.00    +0.178 C 
ENDROOT
BRANCH   5   6
ATOM      6  O   LIG    1       13.934 146.881  29.833  0.00  0.00    -0.386 OA
ATOM      7  H   LIG    1       14.858 147.174  29.756  0.00  0.00    +0.210 HD
ENDBRANCH   5   6
BRANCH   4   8
ATOM      8  O   LIG    1       15.354 146.785  27.318  0.00  0.00    -0.386 OA
ATOM      9  H   LIG    1       15.021 146.658  26.413  0.00  0.00    +0.210 HD
ENDBRANCH   4   8
BRANCH   3  10
ATOM     10  O   LIG    1       16.130 144.017  26.675  0.00  0.00    -0.384 OA
ATOM     11  H   LIG    1       16.055 143.771  25.738  0.00  0.00    +0.210 HD
ENDBRANCH   3  10
BRANCH   2  12
ATOM     12  O   LIG    1       13.938 142.236  26.856  0.00  0.00    -0.345 OA
BRANCH  12  13
ATOM     13  C   LIG    1       13.141 141.187  27.384  0.00  0.00    +0.190 C 
BRANCH  13  14
ATOM     14  C   LIG    1       13.960 139.938  27.432  0.00  0.00    +0.001 C 
ATOM     15  C   LIG    1       13.811 138.925  26.564  0.00  0.00    +0.006 C 
BRANCH  15  16
ATOM     16  C   LIG    1       14.603 137.683  26.563  0.00  0.00    -0.025 A 
ATOM     17  C   LIG    1       14.742 136.967  25.385  0.00  0.00    +0.008 A 
ATOM     18  C   LIG    1       15.492 135.792  25.385  0.00  0.00    +0.001 A 
ATOM     19  C   LIG    1       16.094 135.347  26.562  0.00  0.00    +0.000 A 
ATOM     20  C   LIG    1       15.945 136.078  27.740  0.00  0.00    +0.001 A 
ATOM     21  C   LIG    1       15.195 137.254  27.740  0.00  0.00    +0.008 A 
ENDBRANCH  15  16
ENDBRANCH  13  14
ENDBRANCH  12  13
ENDBRANCH   2  12
BRANCH  22  23
ATOM     23  C   LIG    1       11.750 144.898  30.067  0.00  0.00    +0.197 C 
BRANCH  23  24
ATOM     24  O   LIG    1       11.932 145.710  31.213  0.00  0.00    -0.346 OA
BRANCH  24  25
ATOM     25  C   LIG    1       11.918 144.942  32.411  0.00  0.00    +0.281 C 
ATOM     26  C   LIG    1       13.333 144.875  33.006  0.00  0.00    +0.201 C 
ATOM     27  C   LIG    1       13.747 146.198  33.659  0.00  0.00    +0.178 C 
ATOM     28  C   LIG    1       12.644 146.689  34.599  0.00  0.00    +0.171 C 
ATOM     29  C   LIG    1       11.303 146.731  33.878  0.00  0.00    +0.197 C 
ATOM     36  O   LIG    1       10.971 145.445  33.360  0.00  0.00    -0.346 OA
BRANCH  28  30
ATOM     30  O   LIG    1       12.977 147.975  35.103  0.00  0.00    -0.387 OA
ATOM     31  H   LIG    1       13.913 147.955  35.364  0.00  0.00    +0.210 HD
ENDBRANCH  28  30
BRANCH  27  32
ATOM     32  O   LIG    1       13.975 147.179  32.648  0.00  0.00    -0.386 OA
ATOM     33  H   LIG    1       13.123 147.355  32.213  0.00  0.00    +0.210 HD
ENDBRANCH  27  32
BRANCH  26  34
ATOM     34  O   LIG    1       13.351 143.839  33.985  0.00  0.00    -0.384 OA
ATOM     35  H   LIG    1       13.222 144.241  34.860  0.00  0.00    +0.210 HD
ENDBRANCH  26  34
ENDBRANCH  24  25
ENDBRANCH  23  24
ENDBRANCH  22  23
TORSDOF 13
ENDMDL
MODEL 5
REMARK VINA RESULT:      -7.2     16.166     19.954
REMARK  Name = 9823887
REMARK                            x       y       z     vdW  Elec       q    Type
REMARK                         _______ _______ _______ _____ _____    ______ ____
ROOT
ATOM      1  O   LIG    1       13.300 143.992  29.539  0.00  0.00    -0.341 OA
ATOM      2  C   LIG    1       13.562 145.351  29.197  0.00  0.00    +0.282 C 
ATOM      3  C   LIG    1       14.846 145.457  28.372  0.00  0.00    +0.201 C 
ATOM      4  C   LIG    1       14.801 144.538  27.152  0.00  0.00    +0.179 C 
ATOM      5  C   LIG    1       14.360 143.126  27.538  0.00  0.00    +0.177 C 
ATOM     22  C   LIG    1       13.089 143.168  28.391  0.00  0.00    +0.178 C 
ENDROOT
BRANCH   5   6
ATOM      6  O   LIG    1       14.109 142.370  26.356  0.00  0.00    -0.386 OA
ATOM      7  H   LIG    1       14.431 142.886  25.596  0.00  0.00    +0.210 HD
ENDBRANCH   5   6
BRANCH   4   8
ATOM      8  O   LIG    1       16.104 144.450  26.574  0.00  0.00    -0.386 OA
ATOM      9  H   LIG    1       16.515 143.633  26.905  0.00  0.00    +0.210 HD
ENDBRANCH   4   8
BRANCH   3  10
ATOM     10  O   LIG    1       14.990 146.810  27.942  0.00  0.00    -0.384 OA
ATOM     11  H   LIG    1       14.251 147.323  28.311  0.00  0.00    +0.210 HD
ENDBRANCH   3  10
BRANCH   2  12
ATOM     12  O   LIG    1       13.737 146.121  30.385  0.00  0.00    -0.345 OA
BRANCH  12  13
ATOM     13  C   LIG    1       12.603 146.028  31.233  0.00  0.00    +0.190 C 
BRANCH  13  14
ATOM     14  C   LIG    1       11.386 146.406  30.453  0.00  0.00    +0.001 C 
ATOM     15  C   LIG    1       10.961 147.671  30.316  0.00  0.00    +0.006 C 
BRANCH  15  16
ATOM     16  C   LIG    1        9.778 148.092  29.546  0.00  0.00    -0.025 A 
ATOM     17  C   LIG    1        9.311 149.391  29.673  0.00  0.00    +0.008 A 
ATOM     18  C   LIG    1        8.191 149.788  28.944  0.00  0.00    +0.001 A 
ATOM     19  C   LIG    1        7.551 148.883  28.099  0.00  0.00    +0.000 A 
ATOM     20  C   LIG    1        8.031 147.579  27.981  0.00  0.00    +0.001 A 
ATOM     21  C   LIG    1        9.152 147.181  28.710  0.00  0.00    +0.008 A 
ENDBRANCH  15  16
ENDBRANCH  13  14
ENDBRANCH  12  13
ENDBRANCH   2  12
BRANCH  22  23
ATOM     23  C   LIG    1       12.694 141.780  28.886  0.00  0.00    +0.197 C 
BRANCH  23  24
ATOM     24  O   LIG    1       11.282 141.710  28.953  0.00  0.00    -0.346 OA
BRANCH  24  25
ATOM     25  C   LIG    1       10.834 141.319  30.247  0.00  0.00    +0.281 C 
ATOM     26  C   LIG    1       10.420 142.559  31.054  0.00  0.00    +0.201 C 
ATOM     27  C   LIG    1        9.082 143.136  30.580  0.00  0.00    +0.178 C 
ATOM     28  C   LIG    1        8.037 142.024  30.473  0.00  0.00    +0.171 C 
ATOM     29  C   LIG    1        8.565 140.871  29.628  0.00  0.00    +0.197 C 
ATOM     36  O   LIG    1        9.775 140.357  30.180  0.00  0.00    -0.346 OA
BRANCH  28  30
ATOM     30  O   LIG    1        6.838 142.540  29.913  0.00  0.00    -0.387 OA
ATOM     31  H   LIG    1        6.650 142.035  29.103  0.00  0.00    +0.210 HD
ENDBRANCH  28  30
BRANCH  27  32
ATOM     32  O   LIG    1        9.252 143.748  29.302  0.00  0.00    -0.386 OA
ATOM     33  H   LIG    1        8.814 143.179  28.645  0.00  0.00    +0.210 HD
ENDBRANCH  27  32
BRANCH  26  34
ATOM     34  O   LIG    1       10.311 142.178  32.423  0.00  0.00    -0.384 OA
ATOM     35  H   LIG    1       11.178 141.859  32.724  0.00  0.00    +0.210 HD
ENDBRANCH  26  34
ENDBRANCH  24  25
ENDBRANCH  23  24
ENDBRANCH  22  23
TORSDOF 13
ENDMDL
MODEL 6
REMARK VINA RESULT:      -7.1     16.291     19.634
REMARK  Name = 9823887
REMARK                            x       y       z     vdW  Elec       q    Type
REMARK                         _______ _______ _______ _____ _____    ______ ____
ROOT
ATOM      1  O   LIG    1       12.539 143.962  28.998  0.00  0.00    -0.341 OA
ATOM      2  C   LIG    1       13.103 142.728  28.562  0.00  0.00    +0.282 C 
ATOM      3  C   LIG    1       14.045 142.957  27.379  0.00  0.00    +0.201 C 
ATOM      4  C   LIG    1       15.104 144.008  27.707  0.00  0.00    +0.179 C 
ATOM      5  C   LIG    1       14.474 145.257  28.321  0.00  0.00    +0.177 C 
ATOM     22  C   LIG    1       13.528 144.882  29.465  0.00  0.00    +0.178 C 
ENDROOT
BRANCH   5   6
ATOM      6  O   LIG    1       15.502 146.108  28.821  0.00  0.00    -0.386 OA
ATOM      7  H   LIG    1       15.095 146.956  29.069  0.00  0.00    +0.210 HD
ENDBRANCH   5   6
BRANCH   4   8
ATOM      8  O   LIG    1       15.776 144.397  26.508  0.00  0.00    -0.386 OA
ATOM      9  H   LIG    1       15.509 143.774  25.810  0.00  0.00    +0.210 HD
ENDBRANCH   4   8
BRANCH   3  10
ATOM     10  O   LIG    1       14.684 141.719  27.071  0.00  0.00    -0.384 OA
ATOM     11  H   LIG    1       14.829 141.685  26.111  0.00  0.00    +0.210 HD
ENDBRANCH   3  10
BRANCH   2  12
ATOM     12  O   LIG    1       12.065 141.848  28.135  0.00  0.00    -0.345 OA
BRANCH  12  13
ATOM     13  C   LIG    1       12.136 140.600  28.805  0.00  0.00    +0.190 C 
BRANCH  13  14
ATOM     14  C   LIG    1       12.425 139.530  27.802  0.00  0.00    +0.001 C 
ATOM     15  C   LIG    1       13.577 138.843  27.769  0.00  0.00    +0.006 C 
BRANCH  15  16
ATOM     16  C   LIG    1       13.900 137.772  26.810  0.00  0.00    -0.025 A 
ATOM     17  C   LIG    1       12.876 137.163  26.102  0.00  0.00    +0.008 A 
ATOM     18  C   LIG    1       13.183 136.149  25.195  0.00  0.00    +0.001 A 
ATOM     19  C   LIG    1       14.508 135.757  25.007  0.00  0.00    +0.000 A 
ATOM     20  C   LIG    1       15.528 136.379  25.726  0.00  0.00    +0.001 A 
ATOM     21  C   LIG    1       15.221 137.394  26.634  0.00  0.00    +0.008 A 
ENDBRANCH  15  16
ENDBRANCH  13  14
ENDBRANCH  12  13
ENDBRANCH   2  12
BRANCH  22  23
ATOM     23  C   LIG    1       12.798 146.102  30.018  0.00  0.00    +0.197 C 
BRANCH  23  24
ATOM     24  O   LIG    1       13.618 146.713  30.997  0.00  0.00    -0.346 OA
BRANCH  24  25
ATOM     25  C   LIG    1       12.848 147.403  31.975  0.00  0.00    +0.281 C 
ATOM     26  C   LIG    1       12.157 146.394  32.904  0.00  0.00    +0.201 C 
ATOM     27  C   LIG    1       13.139 145.748  33.887  0.00  0.00    +0.178 C 
ATOM     28  C   LIG    1       13.981 146.825  34.573  0.00  0.00    +0.171 C 
ATOM     29  C   LIG    1       14.628 147.739  33.540  0.00  0.00    +0.197 C 
ATOM     36  O   LIG    1       13.636 148.344  32.713  0.00  0.00    -0.346 OA
BRANCH  28  30
ATOM     30  O   LIG    1       14.974 146.216  35.386  0.00  0.00    -0.387 OA
ATOM     31  H   LIG    1       14.748 146.401  36.314  0.00  0.00    +0.210 HD
ENDBRANCH  28  30
BRANCH  27  32
ATOM     32  O   LIG    1       13.999 144.853  33.185  0.00  0.00    -0.386 OA
ATOM     33  H   LIG    1       14.200 145.256  32.323  0.00  0.00    +0.210 HD
ENDBRANCH  27  32
BRANCH  26  34
ATOM     34  O   LIG    1       11.145 147.086  33.632  0.00  0.00    -0.384 OA
ATOM     35  H   LIG    1       11.228 148.036  33.447  0.00  0.00    +0.210 HD
ENDBRANCH  26  34
ENDBRANCH  24  25
ENDBRANCH  23  24
ENDBRANCH  22  23
TORSDOF 13
ENDMDL
MODEL 7
REMARK VINA RESULT:      -7.0     16.131     19.414
REMARK  Name = 9823887
REMARK                            x       y       z     vdW  Elec       q    Type
REMARK                         _______ _______ _______ _____ _____    ______ ____
ROOT
ATOM      1  O   LIG    1       12.533 144.014  29.084  0.00  0.00    -0.341 OA
ATOM      2  C   LIG    1       13.052 142.743  28.703  0.00  0.00    +0.282 C 
ATOM      3  C   LIG    1       13.966 142.881  27.484  0.00  0.00    +0.201 C 
ATOM      4  C   LIG    1       15.060 143.920  27.725  0.00  0.00    +0.179 C 
ATOM      5  C   LIG    1       14.479 145.217  28.285  0.00  0.00    +0.177 C 
ATOM     22  C   LIG    1       13.557 144.931  29.473  0.00  0.00    +0.178 C 
ENDROOT
BRANCH   5   6
ATOM      6  O   LIG    1       15.543 146.067  28.709  0.00  0.00    -0.386 OA
ATOM      7  H   LIG    1       15.331 146.389  29.602  0.00  0.00    +0.210 HD
ENDBRANCH   5   6
BRANCH   4   8
ATOM      8  O   LIG    1       15.708 144.224  26.488  0.00  0.00    -0.386 OA
ATOM      9  H   LIG    1       16.181 143.424  26.203  0.00  0.00    +0.210 HD
ENDBRANCH   4   8
BRANCH   3  10
ATOM     10  O   LIG    1       14.565 141.611  27.228  0.00  0.00    -0.384 OA
ATOM     11  H   LIG    1       14.770 141.561  26.279  0.00  0.00    +0.210 HD
ENDBRANCH   3  10
BRANCH   2  12
ATOM     12  O   LIG    1       11.981 141.869  28.353  0.00  0.00    -0.345 OA
BRANCH  12  13
ATOM     13  C   LIG    1       11.563 141.092  29.464  0.00  0.00    +0.190 C 
BRANCH  13  14
ATOM     14  C   LIG    1       10.105 141.325  29.695  0.00  0.00    +0.001 C 
ATOM     15  C   LIG    1        9.615 142.454  30.230  0.00  0.00    +0.006 C 
BRANCH  15  16
ATOM     16  C   LIG    1        8.187 142.734  30.462  0.00  0.00    -0.025 A 
ATOM     17  C   LIG    1        7.256 141.729  30.254  0.00  0.00    +0.008 A 
ATOM     18  C   LIG    1        5.905 141.995  30.474  0.00  0.00    +0.001 A 
ATOM     19  C   LIG    1        5.502 143.261  30.898  0.00  0.00    +0.000 A 
ATOM     20  C   LIG    1        6.451 144.262  31.104  0.00  0.00    +0.001 A 
ATOM     21  C   LIG    1        7.803 143.997  30.884  0.00  0.00    +0.008 A 
ENDBRANCH  15  16
ENDBRANCH  13  14
ENDBRANCH  12  13
ENDBRANCH   2  12
BRANCH  22  23
ATOM     23  C   LIG    1       12.873 146.199  29.976  0.00  0.00    +0.197 C 
BRANCH  23  24
ATOM     24  O   LIG    1       13.681 146.776  30.986  0.00  0.00    -0.346 OA
BRANCH  24  25
ATOM     25  C   LIG    1       12.901 147.458  31.962  0.00  0.00    +0.281 C 
ATOM     26  C   LIG    1       12.186 146.440  32.865  0.00  0.00    +0.201 C 
ATOM     27  C   LIG    1       13.147 145.773  33.854  0.00  0.00    +0.178 C 
ATOM     28  C   LIG    1       13.987 146.833  34.569  0.00  0.00    +0.171 C 
ATOM     29  C   LIG    1       14.657 147.757  33.560  0.00  0.00    +0.197 C 
ATOM     36  O   LIG    1       13.684 148.381  32.726  0.00  0.00    -0.346 OA
BRANCH  28  30
ATOM     30  O   LIG    1       14.961 146.205  35.390  0.00  0.00    -0.387 OA
ATOM     31  H   LIG    1       14.599 145.347  35.671  0.00  0.00    +0.210 HD
ENDBRANCH  28  30
BRANCH  27  32
ATOM     32  O   LIG    1       14.012 144.881  33.153  0.00  0.00    -0.386 OA
ATOM     33  H   LIG    1       14.914 145.243  33.210  0.00  0.00    +0.210 HD
ENDBRANCH  27  32
BRANCH  26  34
ATOM     34  O   LIG    1       11.168 147.129  33.586  0.00  0.00    -0.384 OA
ATOM     35  H   LIG    1       10.521 146.478  33.904  0.00  0.00    +0.210 HD
ENDBRANCH  26  34
ENDBRANCH  24  25
ENDBRANCH  23  24
ENDBRANCH  22  23
TORSDOF 13
ENDMDL
MODEL 8
REMARK VINA RESULT:      -6.9     19.575     23.438
REMARK  Name = 9823887
REMARK                            x       y       z     vdW  Elec       q    Type
REMARK                         _______ _______ _______ _____ _____    ______ ____
ROOT
ATOM      1  O   LIG    1       14.183 137.236  25.452  0.00  0.00    -0.341 OA
ATOM      2  C   LIG    1       14.543 138.235  26.403  0.00  0.00    +0.282 C 
ATOM      3  C   LIG    1       14.806 137.603  27.771  0.00  0.00    +0.201 C 
ATOM      4  C   LIG    1       15.836 136.478  27.675  0.00  0.00    +0.179 C 
ATOM      5  C   LIG    1       15.500 135.514  26.539  0.00  0.00    +0.177 C 
ATOM     22  C   LIG    1       15.223 136.279  25.242  0.00  0.00    +0.178 C 
ENDROOT
BRANCH   5   6
ATOM      6  O   LIG    1       16.594 134.623  26.336  0.00  0.00    -0.386 OA
ATOM      7  H   LIG    1       16.841 134.251  27.200  0.00  0.00    +0.210 HD
ENDBRANCH   5   6
BRANCH   4   8
ATOM      8  O   LIG    1       15.844 135.736  28.896  0.00  0.00    -0.386 OA
ATOM      9  H   LIG    1       14.958 135.813  29.289  0.00  0.00    +0.210 HD
ENDBRANCH   4   8
BRANCH   3  10
ATOM     10  O   LIG    1       15.293 138.620  28.647  0.00  0.00    -0.384 OA
ATOM     11  H   LIG    1       16.253 138.504  28.738  0.00  0.00    +0.210 HD
ENDBRANCH   3  10
BRANCH   2  12
ATOM     12  O   LIG    1       13.476 139.170  26.548  0.00  0.00    -0.345 OA
BRANCH  12  13
ATOM     13  C   LIG    1       13.410 140.055  25.441  0.00  0.00    +0.190 C 
BRANCH  13  14
ATOM     14  C   LIG    1       13.479 141.461  25.943  0.00  0.00    +0.001 C 
ATOM     15  C   LIG    1       13.897 141.783  27.177  0.00  0.00    +0.006 C 
BRANCH  15  16
ATOM     16  C   LIG    1       13.995 143.153  27.710  0.00  0.00    -0.025 A 
ATOM     17  C   LIG    1       13.189 143.527  28.774  0.00  0.00    +0.008 A 
ATOM     18  C   LIG    1       13.282 144.824  29.278  0.00  0.00    +0.001 A 
ATOM     19  C   LIG    1       14.179 145.730  28.712  0.00  0.00    +0.000 A 
ATOM     20  C   LIG    1       14.983 145.340  27.642  0.00  0.00    +0.001 A 
ATOM     21  C   LIG    1       14.890 144.042  27.137  0.00  0.00    +0.008 A 
ENDBRANCH  15  16
ENDBRANCH  13  14
ENDBRANCH  12  13
ENDBRANCH   2  12
BRANCH  22  23
ATOM     23  C   LIG    1       14.771 135.347  24.121  0.00  0.00    +0.197 C 
BRANCH  23  24
ATOM     24  O   LIG    1       15.758 135.352  23.106  0.00  0.00    -0.346 OA
BRANCH  24  25
ATOM     25  C   LIG    1       15.387 134.530  22.004  0.00  0.00    +0.281 C 
ATOM     26  C   LIG    1       15.505 135.326  20.695  0.00  0.00    +0.201 C 
ATOM     27  C   LIG    1       16.963 135.526  20.271  0.00  0.00    +0.178 C 
ATOM     28  C   LIG    1       17.713 134.193  20.318  0.00  0.00    +0.171 C 
ATOM     29  C   LIG    1       17.533 133.524  21.675  0.00  0.00    +0.197 C 
ATOM     36  O   LIG    1       16.151 133.320  21.956  0.00  0.00    -0.346 OA
BRANCH  28  30
ATOM     30  O   LIG    1       19.091 134.405  20.048  0.00  0.00    -0.387 OA
ATOM     31  H   LIG    1       19.554 133.564  20.205  0.00  0.00    +0.210 HD
ENDBRANCH  28  30
BRANCH  27  32
ATOM     32  O   LIG    1       17.594 136.453  21.154  0.00  0.00    -0.386 OA
ATOM     33  H   LIG    1       18.252 136.949  20.636  0.00  0.00    +0.210 HD
ENDBRANCH  27  32
BRANCH  26  34
ATOM     34  O   LIG    1       14.812 134.606  19.678  0.00  0.00    -0.384 OA
ATOM     35  H   LIG    1       14.439 133.800  20.071  0.00  0.00    +0.210 HD
ENDBRANCH  26  34
ENDBRANCH  24  25
ENDBRANCH  23  24
ENDBRANCH  22  23
TORSDOF 13
ENDMDL
MODEL 9
REMARK VINA RESULT:      -6.8     15.329     19.010
REMARK  Name = 9823887
REMARK                            x       y       z     vdW  Elec       q    Type
REMARK                         _______ _______ _______ _____ _____    ______ ____
ROOT
ATOM      1  O   LIG    1       13.254 144.165  29.509  0.00  0.00    -0.341 OA
ATOM      2  C   LIG    1       13.549 145.518  29.169  0.00  0.00    +0.282 C 
ATOM      3  C   LIG    1       14.866 145.600  28.395  0.00  0.00    +0.201 C 
ATOM      4  C   LIG    1       14.857 144.672  27.181  0.00  0.00    +0.179 C 
ATOM      5  C   LIG    1       14.381 143.270  27.559  0.00  0.00    +0.177 C 
ATOM     22  C   LIG    1       13.078 143.336  28.360  0.00  0.00    +0.178 C 
ENDROOT
BRANCH   5   6
ATOM      6  O   LIG    1       14.168 142.509  26.373  0.00  0.00    -0.386 OA
ATOM      7  H   LIG    1       13.676 143.065  25.744  0.00  0.00    +0.210 HD
ENDBRANCH   5   6
BRANCH   4   8
ATOM      8  O   LIG    1       16.181 144.562  26.656  0.00  0.00    -0.386 OA
ATOM      9  H   LIG    1       16.220 145.103  25.849  0.00  0.00    +0.210 HD
ENDBRANCH   4   8
BRANCH   3  10
ATOM     10  O   LIG    1       15.046 146.948  27.962  0.00  0.00    -0.384 OA
ATOM     11  H   LIG    1       14.849 146.987  27.011  0.00  0.00    +0.210 HD
ENDBRANCH   3  10
BRANCH   2  12
ATOM     12  O   LIG    1       13.687 146.295  30.357  0.00  0.00    -0.345 OA
BRANCH  12  13
ATOM     13  C   LIG    1       12.520 147.059  30.613  0.00  0.00    +0.190 C 
BRANCH  13  14
ATOM     14  C   LIG    1       12.833 148.083  31.656  0.00  0.00    +0.001 C 
ATOM     15  C   LIG    1       13.598 147.831  32.729  0.00  0.00    +0.006 C 
BRANCH  15  16
ATOM     16  C   LIG    1       13.945 148.810  33.774  0.00  0.00    -0.025 A 
ATOM     17  C   LIG    1       13.332 148.727  35.014  0.00  0.00    +0.008 A 
ATOM     18  C   LIG    1       13.661 149.654  36.002  0.00  0.00    +0.001 A 
ATOM     19  C   LIG    1       14.597 150.653  35.738  0.00  0.00    +0.000 A 
ATOM     20  C   LIG    1       15.206 150.725  34.485  0.00  0.00    +0.001 A 
ATOM     21  C   LIG    1       14.877 149.797  33.496  0.00  0.00    +0.008 A 
ENDBRANCH  15  16
ENDBRANCH  13  14
ENDBRANCH  12  13
ENDBRANCH   2  12
BRANCH  22  23
ATOM     23  C   LIG    1       12.644 141.957  28.848  0.00  0.00    +0.197 C 
BRANCH  23  24
ATOM     24  O   LIG    1       12.226 141.194  27.730  0.00  0.00    -0.346 OA
BRANCH  24  25
ATOM     25  C   LIG    1       12.469 139.804  27.919  0.00  0.00    +0.281 C 
ATOM     26  C   LIG    1       11.305 138.987  27.337  0.00  0.00    +0.201 C 
ATOM     27  C   LIG    1       11.332 138.955  25.806  0.00  0.00    +0.178 C 
ATOM     28  C   LIG    1       12.730 138.582  25.311  0.00  0.00    +0.171 C 
ATOM     29  C   LIG    1       13.783 139.482  25.945  0.00  0.00    +0.197 C 
ATOM     36  O   LIG    1       13.726 139.398  27.367  0.00  0.00    -0.346 OA
BRANCH  28  30
ATOM     30  O   LIG    1       12.783 138.678  23.895  0.00  0.00    -0.387 OA
ATOM     31  H   LIG    1       12.337 139.504  23.639  0.00  0.00    +0.210 HD
ENDBRANCH  28  30
BRANCH  27  32
ATOM     32  O   LIG    1       10.980 140.240  25.295  0.00  0.00    -0.386 OA
ATOM     33  H   LIG    1       10.961 140.858  26.046  0.00  0.00    +0.210 HD
ENDBRANCH  27  32
BRANCH  26  34
ATOM     34  O   LIG    1       11.407 137.656  27.839  0.00  0.00    -0.384 OA
ATOM     35  H   LIG    1       11.752 137.695  28.746  0.00  0.00    +0.210 HD
ENDBRANCH  26  34
ENDBRANCH  24  25
ENDBRANCH  23  24
ENDBRANCH  22  23
TORSDOF 13
ENDMDL
