MODEL 1
REMARK VINA RESULT:      -6.9      0.000      0.000
REMARK  Name = 5280343
REMARK                            x       y       z     vdW  Elec       q    Type
REMARK                         _______ _______ _______ _____ _____    ______ ____
ROOT
ATOM      1  O   LIG    1        0.419  32.762  63.935  0.00  0.00    -0.451 OA
ATOM      2  C   LIG    1        1.641  32.213  64.293  0.00  0.00    +0.181 A 
ATOM      3  C   LIG    1        2.127  31.054  63.812  0.00  0.00    +0.208 A 
ATOM      4  C   LIG    1        1.327  30.302  62.816  0.00  0.00    +0.238 A 
ATOM      5  C   LIG    1        0.038  30.896  62.431  0.00  0.00    +0.109 A 
ATOM      6  C   LIG    1       -0.788  30.266  61.497  0.00  0.00    +0.135 A 
ATOM      7  C   LIG    1       -2.007  30.851  61.151  0.00  0.00    +0.091 A 
ATOM      8  C   LIG    1       -2.397  32.057  61.734  0.00  0.00    +0.124 A 
ATOM      9  C   LIG    1       -1.570  32.683  62.666  0.00  0.00    +0.092 A 
ATOM     14  O   LIG    1        1.718  29.243  62.341  0.00  0.00    -0.283 OA
ATOM     27  C   LIG    1       -0.350  32.101  63.013  0.00  0.00    +0.147 A 
ENDROOT
BRANCH   2  17
ATOM     17  C   LIG    1        2.364  33.022  65.290  0.00  0.00    +0.025 A 
ATOM     18  C   LIG    1        1.863  33.144  66.586  0.00  0.00    +0.015 A 
ATOM     19  C   LIG    1        2.548  33.910  67.530  0.00  0.00    +0.050 A 
ATOM     20  C   LIG    1        3.733  34.554  67.177  0.00  0.00    +0.158 A 
ATOM     21  C   LIG    1        4.235  34.433  65.881  0.00  0.00    +0.159 A 
ATOM     26  C   LIG    1        3.550  33.666  64.938  0.00  0.00    +0.060 A 
BRANCH  21  22
ATOM     22  O   LIG    1        5.392  35.057  65.527  0.00  0.00    -0.503 OA
ATOM     23  H   LIG    1        6.037  34.400  65.216  0.00  0.00    +0.292 HD
ENDBRANCH  21  22
BRANCH  20  24
ATOM     24  O   LIG    1        4.392  35.301  68.107  0.00  0.00    -0.503 OA
ATOM     25  H   LIG    1        5.196  34.838  68.390  0.00  0.00    +0.292 HD
ENDBRANCH  20  24
ENDBRANCH   2  17
BRANCH   8  10
ATOM     10  O   LIG    1       -3.587  32.624  61.393  0.00  0.00    -0.507 OA
ATOM     11  H   LIG    1       -4.194  31.926  61.091  0.00  0.00    +0.292 HD
ENDBRANCH   8  10
BRANCH   6  12
ATOM     12  O   LIG    1       -0.456  29.088  60.898  0.00  0.00    -0.506 OA
ATOM     13  H   LIG    1        0.491  28.910  60.999  0.00  0.00    +0.292 HD
ENDBRANCH   6  12
BRANCH   3  15
ATOM     15  O   LIG    1        3.332  30.519  64.213  0.00  0.00    -0.501 OA
ATOM     16  H   LIG    1        3.187  29.652  64.625  0.00  0.00    +0.292 HD
ENDBRANCH   3  15
TORSDOF 6
ENDMDL
MODEL 2
REMARK VINA RESULT:      -6.9      1.859      2.297
REMARK  Name = 5280343
REMARK                            x       y       z     vdW  Elec       q    Type
REMARK                         _______ _______ _______ _____ _____    ______ ____
ROOT
ATOM      1  O   LIG    1        0.191  32.037  63.791  0.00  0.00    -0.451 OA
ATOM      2  C   LIG    1        1.182  31.121  63.473  0.00  0.00    +0.181 A 
ATOM      3  C   LIG    1        1.063  30.164  62.534  0.00  0.00    +0.208 A 
ATOM      4  C   LIG    1       -0.198  30.074  61.759  0.00  0.00    +0.238 A 
ATOM      5  C   LIG    1       -1.240  31.057  62.093  0.00  0.00    +0.109 A 
ATOM      6  C   LIG    1       -2.464  31.059  61.418  0.00  0.00    +0.135 A 
ATOM      7  C   LIG    1       -3.435  32.001  61.755  0.00  0.00    +0.091 A 
ATOM      8  C   LIG    1       -3.186  32.938  62.760  0.00  0.00    +0.124 A 
ATOM      9  C   LIG    1       -1.963  32.933  63.432  0.00  0.00    +0.092 A 
ATOM     14  O   LIG    1       -0.364  29.227  60.892  0.00  0.00    -0.283 OA
ATOM     27  C   LIG    1       -0.989  31.992  63.095  0.00  0.00    +0.147 A 
ENDROOT
BRANCH   2  17
ATOM     17  C   LIG    1        2.396  31.279  64.293  0.00  0.00    +0.025 A 
ATOM     18  C   LIG    1        2.719  30.318  65.252  0.00  0.00    +0.015 A 
ATOM     19  C   LIG    1        3.868  30.468  66.028  0.00  0.00    +0.050 A 
ATOM     20  C   LIG    1        4.694  31.577  65.846  0.00  0.00    +0.158 A 
ATOM     21  C   LIG    1        4.370  32.538  64.888  0.00  0.00    +0.159 A 
ATOM     26  C   LIG    1        3.221  32.388  64.111  0.00  0.00    +0.060 A 
BRANCH  21  22
ATOM     22  O   LIG    1        5.170  33.624  64.701  0.00  0.00    -0.503 OA
ATOM     23  H   LIG    1        6.102  33.353  64.721  0.00  0.00    +0.292 HD
ENDBRANCH  21  22
BRANCH  20  24
ATOM     24  O   LIG    1        5.812  31.713  66.612  0.00  0.00    -0.503 OA
ATOM     25  H   LIG    1        5.576  32.100  67.470  0.00  0.00    +0.292 HD
ENDBRANCH  20  24
ENDBRANCH   2  17
BRANCH   8  10
ATOM     10  O   LIG    1       -4.136  33.856  63.086  0.00  0.00    -0.507 OA
ATOM     11  H   LIG    1       -3.702  34.706  63.271  0.00  0.00    +0.292 HD
ENDBRANCH   8  10
BRANCH   6  12
ATOM     12  O   LIG    1       -2.759  30.167  60.430  0.00  0.00    -0.506 OA
ATOM     13  H   LIG    1       -2.044  29.521  60.330  0.00  0.00    +0.292 HD
ENDBRANCH   6  12
BRANCH   3  15
ATOM     15  O   LIG    1        2.056  29.247  62.264  0.00  0.00    -0.501 OA
ATOM     16  H   LIG    1        1.878  28.419  62.739  0.00  0.00    +0.292 HD
ENDBRANCH   3  15
TORSDOF 6
ENDMDL
MODEL 3
REMARK VINA RESULT:      -6.8      2.365      3.851
REMARK  Name = 5280343
REMARK                            x       y       z     vdW  Elec       q    Type
REMARK                         _______ _______ _______ _____ _____    ______ ____
ROOT
ATOM      1  O   LIG    1       -1.159  32.856  62.937  0.00  0.00    -0.451 OA
ATOM      2  C   LIG    1       -0.402  31.742  62.606  0.00  0.00    +0.181 A 
ATOM      3  C   LIG    1       -0.894  30.631  62.027  0.00  0.00    +0.208 A 
ATOM      4  C   LIG    1       -2.337  30.577  61.693  0.00  0.00    +0.238 A 
ATOM      5  C   LIG    1       -3.131  31.768  62.034  0.00  0.00    +0.109 A 
ATOM      6  C   LIG    1       -4.500  31.818  61.757  0.00  0.00    +0.135 A 
ATOM      7  C   LIG    1       -5.229  32.958  62.092  0.00  0.00    +0.091 A 
ATOM      8  C   LIG    1       -4.595  34.043  62.701  0.00  0.00    +0.124 A 
ATOM      9  C   LIG    1       -3.229  33.989  62.976  0.00  0.00    +0.092 A 
ATOM     14  O   LIG    1       -2.841  29.595  61.164  0.00  0.00    -0.283 OA
ATOM     27  C   LIG    1       -2.497  32.850  62.641  0.00  0.00    +0.147 A 
ENDROOT
BRANCH   2  17
ATOM     17  C   LIG    1        1.017  31.879  62.978  0.00  0.00    +0.025 A 
ATOM     18  C   LIG    1        1.836  32.770  62.284  0.00  0.00    +0.015 A 
ATOM     19  C   LIG    1        3.180  32.900  62.635  0.00  0.00    +0.050 A 
ATOM     20  C   LIG    1        3.704  32.140  63.680  0.00  0.00    +0.158 A 
ATOM     21  C   LIG    1        2.885  31.248  64.373  0.00  0.00    +0.159 A 
ATOM     26  C   LIG    1        1.541  31.119  64.023  0.00  0.00    +0.060 A 
BRANCH  21  22
ATOM     22  O   LIG    1        3.387  30.501  65.396  0.00  0.00    -0.503 OA
ATOM     23  H   LIG    1        2.935  30.733  66.224  0.00  0.00    +0.292 HD
ENDBRANCH  21  22
BRANCH  20  24
ATOM     24  O   LIG    1        5.019  32.274  64.012  0.00  0.00    -0.503 OA
ATOM     25  H   LIG    1        5.252  33.214  64.053  0.00  0.00    +0.292 HD
ENDBRANCH  20  24
ENDBRANCH   2  17
BRANCH   8  10
ATOM     10  O   LIG    1       -5.311  35.154  63.027  0.00  0.00    -0.507 OA
ATOM     11  H   LIG    1       -5.268  35.285  63.990  0.00  0.00    +0.292 HD
ENDBRANCH   8  10
BRANCH   6  12
ATOM     12  O   LIG    1       -5.168  30.788  61.165  0.00  0.00    -0.506 OA
ATOM     13  H   LIG    1       -5.080  30.834  60.201  0.00  0.00    +0.292 HD
ENDBRANCH   6  12
BRANCH   3  15
ATOM     15  O   LIG    1       -0.121  29.527  61.741  0.00  0.00    -0.501 OA
ATOM     16  H   LIG    1       -0.634  28.892  61.214  0.00  0.00    +0.292 HD
ENDBRANCH   3  15
TORSDOF 6
ENDMDL
MODEL 4
REMARK VINA RESULT:      -6.8      9.045     13.917
REMARK  Name = 5280343
REMARK                            x       y       z     vdW  Elec       q    Type
REMARK                         _______ _______ _______ _____ _____    ______ ____
ROOT
ATOM      1  O   LIG    1      -10.212  33.020  59.702  0.00  0.00    -0.451 OA
ATOM      2  C   LIG    1      -10.299  32.317  58.511  0.00  0.00    +0.181 A 
ATOM      3  C   LIG    1       -9.399  31.408  58.094  0.00  0.00    +0.208 A 
ATOM      4  C   LIG    1       -8.233  31.107  58.959  0.00  0.00    +0.238 A 
ATOM      5  C   LIG    1       -8.153  31.847  60.227  0.00  0.00    +0.109 A 
ATOM      6  C   LIG    1       -7.095  31.633  61.114  0.00  0.00    +0.135 A 
ATOM      7  C   LIG    1       -7.043  32.349  62.310  0.00  0.00    +0.091 A 
ATOM      8  C   LIG    1       -8.042  33.273  62.619  0.00  0.00    +0.124 A 
ATOM      9  C   LIG    1       -9.097  33.485  61.731  0.00  0.00    +0.092 A 
ATOM     14  O   LIG    1       -7.382  30.289  58.634  0.00  0.00    -0.283 OA
ATOM     27  C   LIG    1       -9.152  32.768  60.534  0.00  0.00    +0.147 A 
ENDROOT
BRANCH   2  17
ATOM     17  C   LIG    1      -11.483  32.681  57.713  0.00  0.00    +0.025 A 
ATOM     18  C   LIG    1      -12.735  32.770  58.324  0.00  0.00    +0.015 A 
ATOM     19  C   LIG    1      -13.856  33.115  57.569  0.00  0.00    +0.050 A 
ATOM     20  C   LIG    1      -13.726  33.371  56.204  0.00  0.00    +0.158 A 
ATOM     21  C   LIG    1      -12.475  33.282  55.593  0.00  0.00    +0.159 A 
ATOM     26  C   LIG    1      -11.353  32.938  56.349  0.00  0.00    +0.060 A 
BRANCH  21  22
ATOM     22  O   LIG    1      -12.336  33.532  54.262  0.00  0.00    -0.503 OA
ATOM     23  H   LIG    1      -11.482  33.191  53.951  0.00  0.00    +0.292 HD
ENDBRANCH  21  22
BRANCH  20  24
ATOM     24  O   LIG    1      -14.829  33.705  55.477  0.00  0.00    -0.503 OA
ATOM     25  H   LIG    1      -15.538  33.996  56.072  0.00  0.00    +0.292 HD
ENDBRANCH  20  24
ENDBRANCH   2  17
BRANCH   8  10
ATOM     10  O   LIG    1       -7.988  33.971  63.786  0.00  0.00    -0.507 OA
ATOM     11  H   LIG    1       -7.853  34.913  63.585  0.00  0.00    +0.292 HD
ENDBRANCH   8  10
BRANCH   6  12
ATOM     12  O   LIG    1       -6.093  30.744  60.862  0.00  0.00    -0.506 OA
ATOM     13  H   LIG    1       -5.697  30.915  59.995  0.00  0.00    +0.292 HD
ENDBRANCH   6  12
BRANCH   3  15
ATOM     15  O   LIG    1       -9.498  30.749  56.887  0.00  0.00    -0.501 OA
ATOM     16  H   LIG    1       -9.328  29.801  57.014  0.00  0.00    +0.292 HD
ENDBRANCH   3  15
TORSDOF 6
ENDMDL
MODEL 5
REMARK VINA RESULT:      -6.6      1.712      6.957
REMARK  Name = 5280343
REMARK                            x       y       z     vdW  Elec       q    Type
REMARK                         _______ _______ _______ _____ _____    ______ ____
ROOT
ATOM      1  O   LIG    1        1.880  32.552  64.294  0.00  0.00    -0.451 OA
ATOM      2  C   LIG    1        0.774  31.798  64.654  0.00  0.00    +0.181 A 
ATOM      3  C   LIG    1        0.521  31.363  65.902  0.00  0.00    +0.208 A 
ATOM      4  C   LIG    1        1.466  31.716  66.988  0.00  0.00    +0.238 A 
ATOM      5  C   LIG    1        2.631  32.528  66.602  0.00  0.00    +0.109 A 
ATOM      6  C   LIG    1        3.578  32.916  67.552  0.00  0.00    +0.135 A 
ATOM      7  C   LIG    1        4.673  33.685  67.158  0.00  0.00    +0.091 A 
ATOM      8  C   LIG    1        4.822  34.063  65.823  0.00  0.00    +0.124 A 
ATOM      9  C   LIG    1        3.874  33.673  64.877  0.00  0.00    +0.092 A 
ATOM     14  O   LIG    1        1.289  31.351  68.143  0.00  0.00    -0.283 OA
ATOM     27  C   LIG    1        2.776  32.906  65.268  0.00  0.00    +0.147 A 
ENDROOT
BRANCH   2  17
ATOM     17  C   LIG    1       -0.107  31.489  63.514  0.00  0.00    +0.025 A 
ATOM     18  C   LIG    1       -1.276  32.225  63.317  0.00  0.00    +0.015 A 
ATOM     19  C   LIG    1       -2.110  31.933  62.238  0.00  0.00    +0.050 A 
ATOM     20  C   LIG    1       -1.777  30.905  61.357  0.00  0.00    +0.158 A 
ATOM     21  C   LIG    1       -0.609  30.168  61.554  0.00  0.00    +0.159 A 
ATOM     26  C   LIG    1        0.227  30.461  62.633  0.00  0.00    +0.060 A 
BRANCH  21  22
ATOM     22  O   LIG    1       -0.272  29.163  60.699  0.00  0.00    -0.503 OA
ATOM     23  H   LIG    1       -0.330  29.478  59.782  0.00  0.00    +0.292 HD
ENDBRANCH  21  22
BRANCH  20  24
ATOM     24  O   LIG    1       -2.601  30.627  60.308  0.00  0.00    -0.503 OA
ATOM     25  H   LIG    1       -2.342  31.156  59.538  0.00  0.00    +0.292 HD
ENDBRANCH  20  24
ENDBRANCH   2  17
BRANCH   8  10
ATOM     10  O   LIG    1        5.892  34.813  65.443  0.00  0.00    -0.507 OA
ATOM     11  H   LIG    1        6.700  34.424  65.821  0.00  0.00    +0.292 HD
ENDBRANCH   8  10
BRANCH   6  12
ATOM     12  O   LIG    1        3.482  32.574  68.868  0.00  0.00    -0.506 OA
ATOM     13  H   LIG    1        2.871  31.831  68.982  0.00  0.00    +0.292 HD
ENDBRANCH   6  12
BRANCH   3  15
ATOM     15  O   LIG    1       -0.572  30.586  66.221  0.00  0.00    -0.501 OA
ATOM     16  H   LIG    1       -0.667  30.531  67.186  0.00  0.00    +0.292 HD
ENDBRANCH   3  15
TORSDOF 6
ENDMDL
MODEL 6
REMARK VINA RESULT:      -6.6     12.967     15.722
REMARK  Name = 5280343
REMARK                            x       y       z     vdW  Elec       q    Type
REMARK                         _______ _______ _______ _____ _____    ______ ____
ROOT
ATOM      1  O   LIG    1        5.883  19.192  68.116  0.00  0.00    -0.451 OA
ATOM      2  C   LIG    1        6.151  19.024  66.767  0.00  0.00    +0.181 A 
ATOM      3  C   LIG    1        6.635  19.987  65.960  0.00  0.00    +0.208 A 
ATOM      4  C   LIG    1        6.926  21.322  66.534  0.00  0.00    +0.238 A 
ATOM      5  C   LIG    1        6.652  21.490  67.969  0.00  0.00    +0.109 A 
ATOM      6  C   LIG    1        6.897  22.709  68.606  0.00  0.00    +0.135 A 
ATOM      7  C   LIG    1        6.627  22.840  69.968  0.00  0.00    +0.091 A 
ATOM      8  C   LIG    1        6.116  21.761  70.690  0.00  0.00    +0.124 A 
ATOM      9  C   LIG    1        5.873  20.545  70.051  0.00  0.00    +0.092 A 
ATOM     14  O   LIG    1        7.369  22.236  65.850  0.00  0.00    -0.283 OA
ATOM     27  C   LIG    1        6.143  20.410  68.689  0.00  0.00    +0.147 A 
ENDROOT
BRANCH   2  17
ATOM     17  C   LIG    1        5.828  17.672  66.280  0.00  0.00    +0.025 A 
ATOM     18  C   LIG    1        4.557  17.399  65.772  0.00  0.00    +0.015 A 
ATOM     19  C   LIG    1        4.250  16.119  65.311  0.00  0.00    +0.050 A 
ATOM     20  C   LIG    1        5.213  15.111  65.359  0.00  0.00    +0.158 A 
ATOM     21  C   LIG    1        6.483  15.383  65.868  0.00  0.00    +0.159 A 
ATOM     26  C   LIG    1        6.790  16.664  66.328  0.00  0.00    +0.060 A 
BRANCH  21  22
ATOM     22  O   LIG    1        7.432  14.407  65.918  0.00  0.00    -0.503 OA
ATOM     23  H   LIG    1        7.005  13.539  66.003  0.00  0.00    +0.292 HD
ENDBRANCH  21  22
BRANCH  20  24
ATOM     24  O   LIG    1        4.901  13.864  64.908  0.00  0.00    -0.503 OA
ATOM     25  H   LIG    1        4.592  13.915  63.990  0.00  0.00    +0.292 HD
ENDBRANCH  20  24
ENDBRANCH   2  17
BRANCH   8  10
ATOM     10  O   LIG    1        5.853  21.894  72.019  0.00  0.00    -0.507 OA
ATOM     11  H   LIG    1        5.446  22.764  72.174  0.00  0.00    +0.292 HD
ENDBRANCH   8  10
BRANCH   6  12
ATOM     12  O   LIG    1        7.394  23.794  67.949  0.00  0.00    -0.506 OA
ATOM     13  H   LIG    1        6.966  24.606  68.260  0.00  0.00    +0.292 HD
ENDBRANCH   6  12
BRANCH   3  15
ATOM     15  O   LIG    1        6.859  19.797  64.613  0.00  0.00    -0.501 OA
ATOM     16  H   LIG    1        7.211  20.612  64.219  0.00  0.00    +0.292 HD
ENDBRANCH   3  15
TORSDOF 6
ENDMDL
MODEL 7
REMARK VINA RESULT:      -6.5      3.750      7.670
REMARK  Name = 5280343
REMARK                            x       y       z     vdW  Elec       q    Type
REMARK                         _______ _______ _______ _____ _____    ______ ____
ROOT
ATOM      1  O   LIG    1       -2.746  31.972  62.663  0.00  0.00    -0.451 OA
ATOM      2  C   LIG    1       -3.287  33.113  62.090  0.00  0.00    +0.181 A 
ATOM      3  C   LIG    1       -2.576  34.043  61.425  0.00  0.00    +0.208 A 
ATOM      4  C   LIG    1       -1.115  33.847  61.264  0.00  0.00    +0.238 A 
ATOM      5  C   LIG    1       -0.551  32.627  61.862  0.00  0.00    +0.109 A 
ATOM      6  C   LIG    1        0.815  32.349  61.763  0.00  0.00    +0.135 A 
ATOM      7  C   LIG    1        1.324  31.186  62.341  0.00  0.00    +0.091 A 
ATOM      8  C   LIG    1        0.475  30.306  63.014  0.00  0.00    +0.124 A 
ATOM      9  C   LIG    1       -0.888  30.588  63.111  0.00  0.00    +0.092 A 
ATOM     14  O   LIG    1       -0.417  34.656  60.667  0.00  0.00    -0.283 OA
ATOM     27  C   LIG    1       -1.400  31.750  62.533  0.00  0.00    +0.147 A 
ENDROOT
BRANCH   2  17
ATOM     17  C   LIG    1       -4.740  33.230  62.302  0.00  0.00    +0.025 A 
ATOM     18  C   LIG    1       -5.601  32.266  61.778  0.00  0.00    +0.015 A 
ATOM     19  C   LIG    1       -6.977  32.376  61.978  0.00  0.00    +0.050 A 
ATOM     20  C   LIG    1       -7.492  33.451  62.703  0.00  0.00    +0.158 A 
ATOM     21  C   LIG    1       -6.631  34.416  63.227  0.00  0.00    +0.159 A 
ATOM     26  C   LIG    1       -5.255  34.305  63.027  0.00  0.00    +0.060 A 
BRANCH  21  22
ATOM     22  O   LIG    1       -7.123  35.468  63.937  0.00  0.00    -0.503 OA
ATOM     23  H   LIG    1       -6.625  35.567  64.765  0.00  0.00    +0.292 HD
ENDBRANCH  21  22
BRANCH  20  24
ATOM     24  O   LIG    1       -8.838  33.549  62.890  0.00  0.00    -0.503 OA
ATOM     25  H   LIG    1       -9.084  34.479  63.018  0.00  0.00    +0.292 HD
ENDBRANCH  20  24
ENDBRANCH   2  17
BRANCH   8  10
ATOM     10  O   LIG    1        0.976  29.173  63.576  0.00  0.00    -0.507 OA
ATOM     11  H   LIG    1        0.247  28.546  63.726  0.00  0.00    +0.292 HD
ENDBRANCH   8  10
BRANCH   6  12
ATOM     12  O   LIG    1        1.688  33.173  61.118  0.00  0.00    -0.506 OA
ATOM     13  H   LIG    1        1.508  33.182  60.166  0.00  0.00    +0.292 HD
ENDBRANCH   6  12
BRANCH   3  15
ATOM     15  O   LIG    1       -3.139  35.183  60.895  0.00  0.00    -0.501 OA
ATOM     16  H   LIG    1       -3.790  34.945  60.215  0.00  0.00    +0.292 HD
ENDBRANCH   3  15
TORSDOF 6
ENDMDL
MODEL 8
REMARK VINA RESULT:      -6.4     16.931     19.581
REMARK  Name = 5280343
REMARK                            x       y       z     vdW  Elec       q    Type
REMARK                         _______ _______ _______ _____ _____    ______ ____
ROOT
ATOM      1  O   LIG    1        6.360  14.119  66.652  0.00  0.00    -0.451 OA
ATOM      2  C   LIG    1        4.988  14.313  66.607  0.00  0.00    +0.181 A 
ATOM      3  C   LIG    1        4.385  15.363  66.020  0.00  0.00    +0.208 A 
ATOM      4  C   LIG    1        5.223  16.388  65.351  0.00  0.00    +0.238 A 
ATOM      5  C   LIG    1        6.677  16.169  65.391  0.00  0.00    +0.109 A 
ATOM      6  C   LIG    1        7.553  17.075  64.787  0.00  0.00    +0.135 A 
ATOM      7  C   LIG    1        8.927  16.843  64.841  0.00  0.00    +0.091 A 
ATOM      8  C   LIG    1        9.424  15.714  65.493  0.00  0.00    +0.124 A 
ATOM      9  C   LIG    1        8.547  14.812  66.095  0.00  0.00    +0.092 A 
ATOM     14  O   LIG    1        4.732  17.363  64.799  0.00  0.00    -0.283 OA
ATOM     27  C   LIG    1        7.171  15.040  66.042  0.00  0.00    +0.147 A 
ENDROOT
BRANCH   2  17
ATOM     17  C   LIG    1        4.234  13.253  67.299  0.00  0.00    +0.025 A 
ATOM     18  C   LIG    1        4.148  13.254  68.692  0.00  0.00    +0.015 A 
ATOM     19  C   LIG    1        3.434  12.250  69.347  0.00  0.00    +0.050 A 
ATOM     20  C   LIG    1        2.808  11.245  68.610  0.00  0.00    +0.158 A 
ATOM     21  C   LIG    1        2.896  11.243  67.218  0.00  0.00    +0.159 A 
ATOM     26  C   LIG    1        3.608  12.248  66.562  0.00  0.00    +0.060 A 
BRANCH  21  22
ATOM     22  O   LIG    1        2.287  10.267  66.488  0.00  0.00    -0.503 OA
ATOM     23  H   LIG    1        2.512   9.396  66.853  0.00  0.00    +0.292 HD
ENDBRANCH  21  22
BRANCH  20  24
ATOM     24  O   LIG    1        2.116  10.269  69.262  0.00  0.00    -0.503 OA
ATOM     25  H   LIG    1        2.627   9.444  69.253  0.00  0.00    +0.292 HD
ENDBRANCH  20  24
ENDBRANCH   2  17
BRANCH   8  10
ATOM     10  O   LIG    1       10.766  15.492  65.544  0.00  0.00    -0.507 OA
ATOM     11  H   LIG    1       11.228  16.276  65.198  0.00  0.00    +0.292 HD
ENDBRANCH   8  10
BRANCH   6  12
ATOM     12  O   LIG    1        7.121  18.193  64.139  0.00  0.00    -0.506 OA
ATOM     13  H   LIG    1        7.865  18.785  63.950  0.00  0.00    +0.292 HD
ENDBRANCH   6  12
BRANCH   3  15
ATOM     15  O   LIG    1        3.019  15.544  66.021  0.00  0.00    -0.501 OA
ATOM     16  H   LIG    1        2.572  14.686  66.113  0.00  0.00    +0.292 HD
ENDBRANCH   3  15
TORSDOF 6
ENDMDL
MODEL 9
REMARK VINA RESULT:      -6.4     23.986     25.604
REMARK  Name = 5280343
REMARK                            x       y       z     vdW  Elec       q    Type
REMARK                         _______ _______ _______ _____ _____    ______ ____
ROOT
ATOM      1  O   LIG    1      -13.539  25.748  45.340  0.00  0.00    -0.451 OA
ATOM      2  C   LIG    1      -13.022  25.796  44.055  0.00  0.00    +0.181 A 
ATOM      3  C   LIG    1      -13.372  26.704  43.125  0.00  0.00    +0.208 A 
ATOM      4  C   LIG    1      -14.365  27.746  43.481  0.00  0.00    +0.238 A 
ATOM      5  C   LIG    1      -14.899  27.698  44.851  0.00  0.00    +0.109 A 
ATOM      6  C   LIG    1      -15.837  28.637  45.286  0.00  0.00    +0.135 A 
ATOM      7  C   LIG    1      -16.329  28.567  46.589  0.00  0.00    +0.091 A 
ATOM      8  C   LIG    1      -15.886  27.564  47.453  0.00  0.00    +0.124 A 
ATOM      9  C   LIG    1      -14.950  26.628  47.016  0.00  0.00    +0.092 A 
ATOM     14  O   LIG    1      -14.721  28.599  42.679  0.00  0.00    -0.283 OA
ATOM     27  C   LIG    1      -14.456  26.696  45.712  0.00  0.00    +0.147 A 
ENDROOT
BRANCH   2  17
ATOM     17  C   LIG    1      -12.049  24.723  43.786  0.00  0.00    +0.025 A 
ATOM     18  C   LIG    1      -12.167  23.949  42.630  0.00  0.00    +0.015 A 
ATOM     19  C   LIG    1      -11.246  22.932  42.375  0.00  0.00    +0.050 A 
ATOM     20  C   LIG    1      -10.208  22.689  43.275  0.00  0.00    +0.158 A 
ATOM     21  C   LIG    1      -10.091  23.462  44.431  0.00  0.00    +0.159 A 
ATOM     26  C   LIG    1      -11.011  24.480  44.685  0.00  0.00    +0.060 A 
BRANCH  21  22
ATOM     22  O   LIG    1       -9.081  23.235  45.315  0.00  0.00    -0.503 OA
ATOM     23  H   LIG    1       -8.603  22.426  45.067  0.00  0.00    +0.292 HD
ENDBRANCH  21  22
BRANCH  20  24
ATOM     24  O   LIG    1       -9.316  21.692  43.016  0.00  0.00    -0.503 OA
ATOM     25  H   LIG    1       -8.881  21.420  43.840  0.00  0.00    +0.292 HD
ENDBRANCH  20  24
ENDBRANCH   2  17
BRANCH   8  10
ATOM     10  O   LIG    1      -16.369  27.499  48.724  0.00  0.00    -0.507 OA
ATOM     11  H   LIG    1      -16.869  26.671  48.829  0.00  0.00    +0.292 HD
ENDBRANCH   8  10
BRANCH   6  12
ATOM     12  O   LIG    1      -16.303  29.636  44.483  0.00  0.00    -0.506 OA
ATOM     13  H   LIG    1      -16.259  29.372  43.552  0.00  0.00    +0.292 HD
ENDBRANCH   6  12
BRANCH   3  15
ATOM     15  O   LIG    1      -12.863  26.704  41.844  0.00  0.00    -0.501 OA
ATOM     16  H   LIG    1      -12.885  25.805  41.480  0.00  0.00    +0.292 HD
ENDBRANCH   3  15
TORSDOF 6
ENDMDL
