MODEL 1
REMARK VINA RESULT:      -7.9      0.000      0.000
REMARK  Name = 9823887
REMARK                            x       y       z     vdW  Elec       q    Type
REMARK                         _______ _______ _______ _____ _____    ______ ____
ROOT
ATOM      1  O   LIG    1       13.080 143.552  28.417  0.00  0.00    -0.341 OA
ATOM      2  C   LIG    1       14.318 143.287  27.762  0.00  0.00    +0.282 C 
ATOM      3  C   LIG    1       14.913 144.577  27.198  0.00  0.00    +0.201 C 
ATOM      4  C   LIG    1       15.033 145.653  28.277  0.00  0.00    +0.179 C 
ATOM      5  C   LIG    1       13.731 145.796  29.064  0.00  0.00    +0.177 C 
ATOM     22  C   LIG    1       13.228 144.429  29.535  0.00  0.00    +0.178 C 
ENDROOT
BRANCH   5   6
ATOM      6  O   LIG    1       13.953 146.633  30.196  0.00  0.00    -0.386 OA
ATOM      7  H   LIG    1       14.423 147.429  29.893  0.00  0.00    +0.210 HD
ENDBRANCH   5   6
BRANCH   4   8
ATOM      8  O   LIG    1       15.320 146.911  27.665  0.00  0.00    -0.386 OA
ATOM      9  H   LIG    1       14.470 147.318  27.425  0.00  0.00    +0.210 HD
ENDBRANCH   4   8
BRANCH   3  10
ATOM     10  O   LIG    1       16.209 144.282  26.677  0.00  0.00    -0.384 OA
ATOM     11  H   LIG    1       16.869 144.691  27.261  0.00  0.00    +0.210 HD
ENDBRANCH   3  10
BRANCH   2  12
ATOM     12  O   LIG    1       14.106 142.388  26.675  0.00  0.00    -0.345 OA
BRANCH  12  13
ATOM     13  C   LIG    1       13.102 141.433  26.983  0.00  0.00    +0.190 C 
BRANCH  13  14
ATOM     14  C   LIG    1       13.756 140.117  27.254  0.00  0.00    +0.001 C 
ATOM     15  C   LIG    1       14.027 139.217  26.296  0.00  0.00    +0.006 C 
BRANCH  15  16
ATOM     16  C   LIG    1       14.682 137.915  26.514  0.00  0.00    -0.025 A 
ATOM     17  C   LIG    1       14.773 137.016  25.464  0.00  0.00    +0.008 A 
ATOM     18  C   LIG    1       15.393 135.785  25.671  0.00  0.00    +0.001 A 
ATOM     19  C   LIG    1       15.914 135.467  26.925  0.00  0.00    +0.000 A 
ATOM     20  C   LIG    1       15.815 136.382  27.973  0.00  0.00    +0.001 A 
ATOM     21  C   LIG    1       15.194 137.614  27.766  0.00  0.00    +0.008 A 
ENDBRANCH  15  16
ENDBRANCH  13  14
ENDBRANCH  12  13
ENDBRANCH   2  12
BRANCH  22  23
ATOM     23  C   LIG    1       11.869 144.533  30.222  0.00  0.00    +0.197 C 
BRANCH  23  24
ATOM     24  O   LIG    1       10.941 145.080  29.304  0.00  0.00    -0.346 OA
BRANCH  24  25
ATOM     25  C   LIG    1       10.182 146.135  29.884  0.00  0.00    +0.281 C 
ATOM     26  C   LIG    1        9.780 147.148  28.801  0.00  0.00    +0.201 C 
ATOM     27  C   LIG    1        8.662 146.614  27.899  0.00  0.00    +0.178 C 
ATOM     28  C   LIG    1        7.523 146.051  28.750  0.00  0.00    +0.171 C 
ATOM     29  C   LIG    1        8.054 145.045  29.762  0.00  0.00    +0.197 C 
ATOM     36  O   LIG    1        9.040 145.646  30.598  0.00  0.00    -0.346 OA
BRANCH  28  30
ATOM     30  O   LIG    1        6.549 145.444  27.911  0.00  0.00    -0.387 OA
ATOM     31  H   LIG    1        5.802 145.177  28.474  0.00  0.00    +0.210 HD
ENDBRANCH  28  30
BRANCH  27  32
ATOM     32  O   LIG    1        9.178 145.582  27.060  0.00  0.00    -0.386 OA
ATOM     33  H   LIG    1        8.576 144.821  27.127  0.00  0.00    +0.210 HD
ENDBRANCH  27  32
BRANCH  26  34
ATOM     34  O   LIG    1        9.335 148.335  29.452  0.00  0.00    -0.384 OA
ATOM     35  H   LIG    1       10.046 148.653  30.033  0.00  0.00    +0.210 HD
ENDBRANCH  26  34
ENDBRANCH  24  25
ENDBRANCH  23  24
ENDBRANCH  22  23
TORSDOF 13
ENDMDL
MODEL 2
REMARK VINA RESULT:      -7.6      2.197      3.172
REMARK  Name = 9823887
REMARK                            x       y       z     vdW  Elec       q    Type
REMARK                         _______ _______ _______ _____ _____    ______ ____
ROOT
ATOM      1  O   LIG    1       13.053 143.580  28.438  0.00  0.00    -0.341 OA
ATOM      2  C   LIG    1       14.287 143.308  27.779  0.00  0.00    +0.282 C 
ATOM      3  C   LIG    1       14.885 144.594  27.208  0.00  0.00    +0.201 C 
ATOM      4  C   LIG    1       15.012 145.674  28.282  0.00  0.00    +0.179 C 
ATOM      5  C   LIG    1       13.714 145.824  29.073  0.00  0.00    +0.177 C 
ATOM     22  C   LIG    1       13.208 144.461  29.551  0.00  0.00    +0.178 C 
ENDROOT
BRANCH   5   6
ATOM      6  O   LIG    1       13.942 146.665  30.201  0.00  0.00    -0.386 OA
ATOM      7  H   LIG    1       14.410 147.461  29.892  0.00  0.00    +0.210 HD
ENDBRANCH   5   6
BRANCH   4   8
ATOM      8  O   LIG    1       15.301 146.929  27.663  0.00  0.00    -0.386 OA
ATOM      9  H   LIG    1       15.817 146.745  26.860  0.00  0.00    +0.210 HD
ENDBRANCH   4   8
BRANCH   3  10
ATOM     10  O   LIG    1       16.177 144.292  26.683  0.00  0.00    -0.384 OA
ATOM     11  H   LIG    1       16.189 144.549  25.746  0.00  0.00    +0.210 HD
ENDBRANCH   3  10
BRANCH   2  12
ATOM     12  O   LIG    1       14.068 142.405  26.697  0.00  0.00    -0.345 OA
BRANCH  12  13
ATOM     13  C   LIG    1       13.547 141.167  27.154  0.00  0.00    +0.190 C 
BRANCH  13  14
ATOM     14  C   LIG    1       12.656 140.600  26.097  0.00  0.00    +0.001 C 
ATOM     15  C   LIG    1       12.693 140.991  24.813  0.00  0.00    +0.006 C 
BRANCH  15  16
ATOM     16  C   LIG    1       11.845 140.451  23.736  0.00  0.00    -0.025 A 
ATOM     17  C   LIG    1       10.862 141.253  23.178  0.00  0.00    +0.008 A 
ATOM     18  C   LIG    1       10.061 140.741  22.159  0.00  0.00    +0.001 A 
ATOM     19  C   LIG    1       10.250 139.434  21.711  0.00  0.00    +0.000 A 
ATOM     20  C   LIG    1       11.243 138.639  22.281  0.00  0.00    +0.001 A 
ATOM     21  C   LIG    1       12.046 139.151  23.301  0.00  0.00    +0.008 A 
ENDBRANCH  15  16
ENDBRANCH  13  14
ENDBRANCH  12  13
ENDBRANCH   2  12
BRANCH  22  23
ATOM     23  C   LIG    1       11.852 144.572  30.243  0.00  0.00    +0.197 C 
BRANCH  23  24
ATOM     24  O   LIG    1       10.917 145.100  29.320  0.00  0.00    -0.346 OA
BRANCH  24  25
ATOM     25  C   LIG    1       10.153 146.158  29.888  0.00  0.00    +0.281 C 
ATOM     26  C   LIG    1        9.755 147.161  28.794  0.00  0.00    +0.201 C 
ATOM     27  C   LIG    1        8.643 146.618  27.891  0.00  0.00    +0.178 C 
ATOM     28  C   LIG    1        7.500 146.060  28.740  0.00  0.00    +0.171 C 
ATOM     29  C   LIG    1        8.029 145.063  29.763  0.00  0.00    +0.197 C 
ATOM     36  O   LIG    1        9.009 145.673  30.599  0.00  0.00    -0.346 OA
BRANCH  28  30
ATOM     30  O   LIG    1        6.532 145.444  27.902  0.00  0.00    -0.387 OA
ATOM     31  H   LIG    1        5.699 145.936  28.004  0.00  0.00    +0.210 HD
ENDBRANCH  28  30
BRANCH  27  32
ATOM     32  O   LIG    1        9.165 145.580  27.063  0.00  0.00    -0.386 OA
ATOM     33  H   LIG    1        9.606 144.936  27.643  0.00  0.00    +0.210 HD
ENDBRANCH  27  32
BRANCH  26  34
ATOM     34  O   LIG    1        9.304 148.354  29.433  0.00  0.00    -0.384 OA
ATOM     35  H   LIG    1        8.964 148.122  30.313  0.00  0.00    +0.210 HD
ENDBRANCH  26  34
ENDBRANCH  24  25
ENDBRANCH  23  24
ENDBRANCH  22  23
TORSDOF 13
ENDMDL
MODEL 3
REMARK VINA RESULT:      -7.1      2.810      8.838
REMARK  Name = 9823887
REMARK                            x       y       z     vdW  Elec       q    Type
REMARK                         _______ _______ _______ _____ _____    ______ ____
ROOT
ATOM      1  O   LIG    1       13.239 144.390  29.433  0.00  0.00    -0.341 OA
ATOM      2  C   LIG    1       13.596 145.698  28.991  0.00  0.00    +0.282 C 
ATOM      3  C   LIG    1       14.932 145.666  28.248  0.00  0.00    +0.201 C 
ATOM      4  C   LIG    1       14.914 144.643  27.114  0.00  0.00    +0.179 C 
ATOM      5  C   LIG    1       14.373 143.296  27.591  0.00  0.00    +0.177 C 
ATOM     22  C   LIG    1       13.056 143.477  28.350  0.00  0.00    +0.178 C 
ENDROOT
BRANCH   5   6
ATOM      6  O   LIG    1       14.157 142.448  26.466  0.00  0.00    -0.386 OA
ATOM      7  H   LIG    1       13.214 142.498  26.230  0.00  0.00    +0.210 HD
ENDBRANCH   5   6
BRANCH   4   8
ATOM      8  O   LIG    1       16.244 144.441  26.635  0.00  0.00    -0.386 OA
ATOM      9  H   LIG    1       16.179 144.151  25.709  0.00  0.00    +0.210 HD
ENDBRANCH   4   8
BRANCH   3  10
ATOM     10  O   LIG    1       15.176 146.966  27.712  0.00  0.00    -0.384 OA
ATOM     11  H   LIG    1       15.855 146.885  27.022  0.00  0.00    +0.210 HD
ENDBRANCH   3  10
BRANCH   2  12
ATOM     12  O   LIG    1       13.737 146.564  30.115  0.00  0.00    -0.345 OA
BRANCH  12  13
ATOM     13  C   LIG    1       12.694 146.364  31.057  0.00  0.00    +0.190 C 
BRANCH  13  14
ATOM     14  C   LIG    1       11.699 147.471  30.916  0.00  0.00    +0.001 C 
ATOM     15  C   LIG    1       11.094 147.775  29.757  0.00  0.00    +0.006 C 
BRANCH  15  16
ATOM     16  C   LIG    1       10.098 148.845  29.574  0.00  0.00    -0.025 A 
ATOM     17  C   LIG    1        8.795 148.510  29.244  0.00  0.00    +0.008 A 
ATOM     18  C   LIG    1        7.852 149.524  29.071  0.00  0.00    +0.001 A 
ATOM     19  C   LIG    1        8.225 150.858  29.230  0.00  0.00    +0.000 A 
ATOM     20  C   LIG    1        9.541 151.180  29.563  0.00  0.00    +0.001 A 
ATOM     21  C   LIG    1       10.483 150.166  29.736  0.00  0.00    +0.008 A 
ENDBRANCH  15  16
ENDBRANCH  13  14
ENDBRANCH  12  13
ENDBRANCH   2  12
BRANCH  22  23
ATOM     23  C   LIG    1       12.557 142.160  28.937  0.00  0.00    +0.197 C 
BRANCH  23  24
ATOM     24  O   LIG    1       12.131 141.326  27.875  0.00  0.00    -0.346 OA
BRANCH  24  25
ATOM     25  C   LIG    1       12.342 139.949  28.168  0.00  0.00    +0.281 C 
ATOM     26  C   LIG    1       11.221 139.104  27.543  0.00  0.00    +0.201 C 
ATOM     27  C   LIG    1       11.374 138.977  26.023  0.00  0.00    +0.178 C 
ATOM     28  C   LIG    1       12.804 138.565  25.670  0.00  0.00    +0.171 C 
ATOM     29  C   LIG    1       13.810 139.498  26.332  0.00  0.00    +0.197 C 
ATOM     36  O   LIG    1       13.636 139.502  27.747  0.00  0.00    -0.346 OA
BRANCH  28  30
ATOM     30  O   LIG    1       12.973 138.573  24.259  0.00  0.00    -0.387 OA
ATOM     31  H   LIG    1       13.099 139.498  23.984  0.00  0.00    +0.210 HD
ENDBRANCH  28  30
BRANCH  27  32
ATOM     32  O   LIG    1       11.078 140.230  25.408  0.00  0.00    -0.386 OA
ATOM     33  H   LIG    1       11.335 140.930  26.032  0.00  0.00    +0.210 HD
ENDBRANCH  27  32
BRANCH  26  34
ATOM     34  O   LIG    1       11.267 137.806  28.132  0.00  0.00    -0.384 OA
ATOM     35  H   LIG    1       10.815 137.183  27.539  0.00  0.00    +0.210 HD
ENDBRANCH  26  34
ENDBRANCH  24  25
ENDBRANCH  23  24
ENDBRANCH  22  23
TORSDOF 13
ENDMDL
MODEL 4
REMARK VINA RESULT:      -7.0      2.461      8.748
REMARK  Name = 9823887
REMARK                            x       y       z     vdW  Elec       q    Type
REMARK                         _______ _______ _______ _____ _____    ______ ____
ROOT
ATOM      1  O   LIG    1       13.147 143.185  29.319  0.00  0.00    -0.341 OA
ATOM      2  C   LIG    1       13.494 144.564  29.421  0.00  0.00    +0.282 C 
ATOM      3  C   LIG    1       14.830 144.833  28.728  0.00  0.00    +0.201 C 
ATOM      4  C   LIG    1       14.820 144.330  27.285  0.00  0.00    +0.179 C 
ATOM      5  C   LIG    1       14.290 142.900  27.200  0.00  0.00    +0.177 C 
ATOM     22  C   LIG    1       12.972 142.762  27.966  0.00  0.00    +0.178 C 
ENDROOT
BRANCH   5   6
ATOM      6  O   LIG    1       14.081 142.554  25.834  0.00  0.00    -0.386 OA
ATOM      7  H   LIG    1       13.198 142.871  25.576  0.00  0.00    +0.210 HD
ENDBRANCH   5   6
BRANCH   4   8
ATOM      8  O   LIG    1       16.152 144.339  26.769  0.00  0.00    -0.386 OA
ATOM      9  H   LIG    1       16.457 145.262  26.766  0.00  0.00    +0.210 HD
ENDBRANCH   4   8
BRANCH   3  10
ATOM     10  O   LIG    1       15.064 146.241  28.738  0.00  0.00    -0.384 OA
ATOM     11  H   LIG    1       14.409 146.651  29.328  0.00  0.00    +0.210 HD
ENDBRANCH   3  10
BRANCH   2  12
ATOM     12  O   LIG    1       13.628 144.927  30.793  0.00  0.00    -0.345 OA
BRANCH  12  13
ATOM     13  C   LIG    1       13.020 146.182  31.058  0.00  0.00    +0.190 C 
BRANCH  13  14
ATOM     14  C   LIG    1       11.842 146.347  30.153  0.00  0.00    +0.001 C 
ATOM     15  C   LIG    1       10.709 146.964  30.522  0.00  0.00    +0.006 C 
BRANCH  15  16
ATOM     16  C   LIG    1        9.531 147.163  29.660  0.00  0.00    -0.025 A 
ATOM     17  C   LIG    1        9.075 148.449  29.420  0.00  0.00    +0.008 A 
ATOM     18  C   LIG    1        7.960 148.636  28.604  0.00  0.00    +0.001 A 
ATOM     19  C   LIG    1        7.314 147.536  28.041  0.00  0.00    +0.000 A 
ATOM     20  C   LIG    1        7.784 146.248  28.292  0.00  0.00    +0.001 A 
ATOM     21  C   LIG    1        8.900 146.060  29.108  0.00  0.00    +0.008 A 
ENDBRANCH  15  16
ENDBRANCH  13  14
ENDBRANCH  12  13
ENDBRANCH   2  12
BRANCH  22  23
ATOM     23  C   LIG    1       12.482 141.317  27.994  0.00  0.00    +0.197 C 
BRANCH  23  24
ATOM     24  O   LIG    1       13.576 140.466  27.705  0.00  0.00    -0.346 OA
BRANCH  24  25
ATOM     25  C   LIG    1       13.210 139.423  26.807  0.00  0.00    +0.281 C 
ATOM     26  C   LIG    1       14.452 138.605  26.422  0.00  0.00    +0.201 C 
ATOM     27  C   LIG    1       14.917 137.691  27.560  0.00  0.00    +0.178 C 
ATOM     28  C   LIG    1       13.733 136.896  28.114  0.00  0.00    +0.171 C 
ATOM     29  C   LIG    1       12.584 137.828  28.478  0.00  0.00    +0.197 C 
ATOM     36  O   LIG    1       12.177 138.590  27.344  0.00  0.00    -0.346 OA
BRANCH  28  30
ATOM     30  O   LIG    1       14.143 136.147  29.249  0.00  0.00    -0.387 OA
ATOM     31  H   LIG    1       14.567 135.333  28.927  0.00  0.00    +0.210 HD
ENDBRANCH  28  30
BRANCH  27  32
ATOM     32  O   LIG    1       15.484 138.480  28.605  0.00  0.00    -0.386 OA
ATOM     33  H   LIG    1       15.542 139.396  28.282  0.00  0.00    +0.210 HD
ENDBRANCH  27  32
BRANCH  26  34
ATOM     34  O   LIG    1       14.122 137.812  25.284  0.00  0.00    -0.384 OA
ATOM     35  H   LIG    1       14.927 137.361  24.979  0.00  0.00    +0.210 HD
ENDBRANCH  26  34
ENDBRANCH  24  25
ENDBRANCH  23  24
ENDBRANCH  22  23
TORSDOF 13
ENDMDL
MODEL 5
REMARK VINA RESULT:      -7.0      3.428      7.609
REMARK  Name = 9823887
REMARK                            x       y       z     vdW  Elec       q    Type
REMARK                         _______ _______ _______ _____ _____    ______ ____
ROOT
ATOM      1  O   LIG    1       13.245 144.285  29.470  0.00  0.00    -0.341 OA
ATOM      2  C   LIG    1       13.572 145.598  29.021  0.00  0.00    +0.282 C 
ATOM      3  C   LIG    1       14.901 145.589  28.264  0.00  0.00    +0.201 C 
ATOM      4  C   LIG    1       14.891 144.562  27.133  0.00  0.00    +0.179 C 
ATOM      5  C   LIG    1       14.381 143.206  27.620  0.00  0.00    +0.177 C 
ATOM     22  C   LIG    1       13.069 143.364  28.392  0.00  0.00    +0.178 C 
ENDROOT
BRANCH   5   6
ATOM      6  O   LIG    1       14.170 142.351  26.500  0.00  0.00    -0.386 OA
ATOM      7  H   LIG    1       14.901 141.710  26.470  0.00  0.00    +0.210 HD
ENDBRANCH   5   6
BRANCH   4   8
ATOM      8  O   LIG    1       16.220 144.383  26.640  0.00  0.00    -0.386 OA
ATOM      9  H   LIG    1       16.324 144.964  25.867  0.00  0.00    +0.210 HD
ENDBRANCH   4   8
BRANCH   3  10
ATOM     10  O   LIG    1       15.114 146.891  27.720  0.00  0.00    -0.384 OA
ATOM     11  H   LIG    1       15.588 147.421  28.383  0.00  0.00    +0.210 HD
ENDBRANCH   3  10
BRANCH   2  12
ATOM     12  O   LIG    1       13.709 146.471  30.140  0.00  0.00    -0.345 OA
BRANCH  12  13
ATOM     13  C   LIG    1       12.746 146.181  31.142  0.00  0.00    +0.190 C 
BRANCH  13  14
ATOM     14  C   LIG    1       11.455 146.838  30.773  0.00  0.00    +0.001 C 
ATOM     15  C   LIG    1       11.376 147.908  29.967  0.00  0.00    +0.006 C 
BRANCH  15  16
ATOM     16  C   LIG    1       10.127 148.578  29.566  0.00  0.00    -0.025 A 
ATOM     17  C   LIG    1        9.969 149.930  29.823  0.00  0.00    +0.008 A 
ATOM     18  C   LIG    1        8.787 150.564  29.443  0.00  0.00    +0.001 A 
ATOM     19  C   LIG    1        7.777 149.838  28.811  0.00  0.00    +0.000 A 
ATOM     20  C   LIG    1        7.950 148.478  28.558  0.00  0.00    +0.001 A 
ATOM     21  C   LIG    1        9.133 147.843  28.939  0.00  0.00    +0.008 A 
ENDBRANCH  15  16
ENDBRANCH  13  14
ENDBRANCH  12  13
ENDBRANCH   2  12
BRANCH  22  23
ATOM     23  C   LIG    1       12.601 142.040  28.988  0.00  0.00    +0.197 C 
BRANCH  23  24
ATOM     24  O   LIG    1       11.188 142.059  29.074  0.00  0.00    -0.346 OA
BRANCH  24  25
ATOM     25  C   LIG    1       10.737 141.854  30.409  0.00  0.00    +0.281 C 
ATOM     26  C   LIG    1       10.358 143.199  31.046  0.00  0.00    +0.201 C 
ATOM     27  C   LIG    1        9.032 143.742  30.503  0.00  0.00    +0.178 C 
ATOM     28  C   LIG    1        7.960 142.652  30.546  0.00  0.00    +0.171 C 
ATOM     29  C   LIG    1        8.455 141.384  29.860  0.00  0.00    +0.197 C 
ATOM     36  O   LIG    1        9.655 140.918  30.472  0.00  0.00    -0.346 OA
BRANCH  28  30
ATOM     30  O   LIG    1        6.771 143.119  29.925  0.00  0.00    -0.387 OA
ATOM     31  H   LIG    1        6.333 142.354  29.514  0.00  0.00    +0.210 HD
ENDBRANCH  28  30
BRANCH  27  32
ATOM     32  O   LIG    1        9.210 144.175  29.155  0.00  0.00    -0.386 OA
ATOM     33  H   LIG    1        9.579 145.074  29.183  0.00  0.00    +0.210 HD
ENDBRANCH  27  32
BRANCH  26  34
ATOM     34  O   LIG    1       10.247 143.005  32.454  0.00  0.00    -0.384 OA
ATOM     35  H   LIG    1       10.581 142.118  32.669  0.00  0.00    +0.210 HD
ENDBRANCH  26  34
ENDBRANCH  24  25
ENDBRANCH  23  24
ENDBRANCH  22  23
TORSDOF 13
ENDMDL
MODEL 6
REMARK VINA RESULT:      -6.9      5.205     11.394
REMARK  Name = 9823887
REMARK                            x       y       z     vdW  Elec       q    Type
REMARK                         _______ _______ _______ _____ _____    ______ ____
ROOT
ATOM      1  O   LIG    1       13.989 137.105  25.318  0.00  0.00    -0.341 OA
ATOM      2  C   LIG    1       14.388 138.156  26.194  0.00  0.00    +0.282 C 
ATOM      3  C   LIG    1       14.741 137.599  27.574  0.00  0.00    +0.201 C 
ATOM      4  C   LIG    1       15.782 136.485  27.474  0.00  0.00    +0.179 C 
ATOM      5  C   LIG    1       15.395 135.459  26.410  0.00  0.00    +0.177 C 
ATOM     22  C   LIG    1       15.030 136.153  25.094  0.00  0.00    +0.178 C 
ENDROOT
BRANCH   5   6
ATOM      6  O   LIG    1       16.490 134.573  26.188  0.00  0.00    -0.386 OA
ATOM      7  H   LIG    1       17.293 134.996  26.538  0.00  0.00    +0.210 HD
ENDBRANCH   5   6
BRANCH   4   8
ATOM      8  O   LIG    1       15.874 135.806  28.728  0.00  0.00    -0.386 OA
ATOM      9  H   LIG    1       16.231 136.438  29.375  0.00  0.00    +0.210 HD
ENDBRANCH   4   8
BRANCH   3  10
ATOM     10  O   LIG    1       15.262 138.665  28.367  0.00  0.00    -0.384 OA
ATOM     11  H   LIG    1       15.054 138.479  29.297  0.00  0.00    +0.210 HD
ENDBRANCH   3  10
BRANCH   2  12
ATOM     12  O   LIG    1       13.316 139.083  26.355  0.00  0.00    -0.345 OA
BRANCH  12  13
ATOM     13  C   LIG    1       13.310 140.051  25.318  0.00  0.00    +0.190 C 
BRANCH  13  14
ATOM     14  C   LIG    1       13.305 141.414  25.931  0.00  0.00    +0.001 C 
ATOM     15  C   LIG    1       13.933 141.708  27.080  0.00  0.00    +0.006 C 
BRANCH  15  16
ATOM     16  C   LIG    1       13.967 143.038  27.714  0.00  0.00    -0.025 A 
ATOM     17  C   LIG    1       14.850 143.994  27.239  0.00  0.00    +0.008 A 
ATOM     18  C   LIG    1       14.882 145.252  27.839  0.00  0.00    +0.001 A 
ATOM     19  C   LIG    1       14.031 145.538  28.906  0.00  0.00    +0.000 A 
ATOM     20  C   LIG    1       13.148 144.566  29.374  0.00  0.00    +0.001 A 
ATOM     21  C   LIG    1       13.116 143.307  28.773  0.00  0.00    +0.008 A 
ENDBRANCH  15  16
ENDBRANCH  13  14
ENDBRANCH  12  13
ENDBRANCH   2  12
BRANCH  22  23
ATOM     23  C   LIG    1       14.529 135.158  24.051  0.00  0.00    +0.197 C 
BRANCH  23  24
ATOM     24  O   LIG    1       15.647 134.613  23.375  0.00  0.00    -0.346 OA
BRANCH  24  25
ATOM     25  C   LIG    1       15.287 134.075  22.107  0.00  0.00    +0.281 C 
ATOM     26  C   LIG    1       15.333 135.178  21.039  0.00  0.00    +0.201 C 
ATOM     27  C   LIG    1       16.769 135.554  20.660  0.00  0.00    +0.178 C 
ATOM     28  C   LIG    1       17.582 134.294  20.361  0.00  0.00    +0.171 C 
ATOM     29  C   LIG    1       17.470 133.297  21.507  0.00  0.00    +0.197 C 
ATOM     36  O   LIG    1       16.106 132.957  21.746  0.00  0.00    -0.346 OA
BRANCH  28  30
ATOM     30  O   LIG    1       18.942 134.639  20.135  0.00  0.00    -0.387 OA
ATOM     31  H   LIG    1       19.424 133.818  19.937  0.00  0.00    +0.210 HD
ENDBRANCH  28  30
BRANCH  27  32
ATOM     32  O   LIG    1       17.378 136.262  21.739  0.00  0.00    -0.386 OA
ATOM     33  H   LIG    1       18.296 136.456  21.481  0.00  0.00    +0.210 HD
ENDBRANCH  27  32
BRANCH  26  34
ATOM     34  O   LIG    1       14.649 134.701  19.883  0.00  0.00    -0.384 OA
ATOM     35  H   LIG    1       15.310 134.444  19.219  0.00  0.00    +0.210 HD
ENDBRANCH  26  34
ENDBRANCH  24  25
ENDBRANCH  23  24
ENDBRANCH  22  23
TORSDOF 13
ENDMDL
MODEL 7
REMARK VINA RESULT:      -6.9      7.921     10.467
REMARK  Name = 9823887
REMARK                            x       y       z     vdW  Elec       q    Type
REMARK                         _______ _______ _______ _____ _____    ______ ____
ROOT
ATOM      1  O   LIG    1        9.800 141.082  22.238  0.00  0.00    -0.341 OA
ATOM      2  C   LIG    1        8.428 140.859  21.921  0.00  0.00    +0.282 C 
ATOM      3  C   LIG    1        8.107 139.365  21.955  0.00  0.00    +0.201 C 
ATOM      4  C   LIG    1        8.517 138.737  23.286  0.00  0.00    +0.179 C 
ATOM      5  C   LIG    1        9.943 139.131  23.669  0.00  0.00    +0.177 C 
ATOM     22  C   LIG    1       10.137 140.645  23.555  0.00  0.00    +0.178 C 
ENDROOT
BRANCH   5   6
ATOM      6  O   LIG    1       10.202 138.721  25.009  0.00  0.00    -0.386 OA
ATOM      7  H   LIG    1       11.137 138.458  25.066  0.00  0.00    +0.210 HD
ENDBRANCH   5   6
BRANCH   4   8
ATOM      8  O   LIG    1        8.466 137.313  23.177  0.00  0.00    -0.386 OA
ATOM      9  H   LIG    1        9.380 136.985  23.225  0.00  0.00    +0.210 HD
ENDBRANCH   4   8
BRANCH   3  10
ATOM     10  O   LIG    1        6.701 139.205  21.768  0.00  0.00    -0.384 OA
ATOM     11  H   LIG    1        6.539 138.298  21.458  0.00  0.00    +0.210 HD
ENDBRANCH   3  10
BRANCH   2  12
ATOM     12  O   LIG    1        8.152 141.340  20.607  0.00  0.00    -0.345 OA
BRANCH  12  13
ATOM     13  C   LIG    1        9.207 141.027  19.710  0.00  0.00    +0.190 C 
BRANCH  13  14
ATOM     14  C   LIG    1        8.620 140.486  18.447  0.00  0.00    +0.001 C 
ATOM     15  C   LIG    1        8.101 141.262  17.483  0.00  0.00    +0.006 C 
BRANCH  15  16
ATOM     16  C   LIG    1        7.526 140.774  16.217  0.00  0.00    -0.025 A 
ATOM     17  C   LIG    1        6.149 140.710  16.077  0.00  0.00    +0.008 A 
ATOM     18  C   LIG    1        5.606 140.248  14.878  0.00  0.00    +0.001 A 
ATOM     19  C   LIG    1        6.446 139.856  13.836  0.00  0.00    +0.000 A 
ATOM     20  C   LIG    1        7.830 139.925  13.992  0.00  0.00    +0.001 A 
ATOM     21  C   LIG    1        8.374 140.388  15.191  0.00  0.00    +0.008 A 
ENDBRANCH  15  16
ENDBRANCH  13  14
ENDBRANCH  12  13
ENDBRANCH   2  12
BRANCH  22  23
ATOM     23  C   LIG    1       11.584 141.050  23.819  0.00  0.00    +0.197 C 
BRANCH  23  24
ATOM     24  O   LIG    1       11.777 141.146  25.219  0.00  0.00    -0.346 OA
BRANCH  24  25
ATOM     25  C   LIG    1       13.159 141.185  25.560  0.00  0.00    +0.281 C 
ATOM     26  C   LIG    1       13.325 141.650  27.015  0.00  0.00    +0.201 C 
ATOM     27  C   LIG    1       12.936 140.558  28.017  0.00  0.00    +0.178 C 
ATOM     28  C   LIG    1       13.618 139.239  27.650  0.00  0.00    +0.171 C 
ATOM     29  C   LIG    1       13.353 138.885  26.192  0.00  0.00    +0.197 C 
ATOM     36  O   LIG    1       13.805 139.928  25.331  0.00  0.00    -0.346 OA
BRANCH  28  30
ATOM     30  O   LIG    1       13.155 138.203  28.504  0.00  0.00    -0.387 OA
ATOM     31  H   LIG    1       12.212 138.063  28.312  0.00  0.00    +0.210 HD
ENDBRANCH  28  30
BRANCH  27  32
ATOM     32  O   LIG    1       11.521 140.377  28.000  0.00  0.00    -0.386 OA
ATOM     33  H   LIG    1       11.113 141.239  28.192  0.00  0.00    +0.210 HD
ENDBRANCH  27  32
BRANCH  26  34
ATOM     34  O   LIG    1       14.692 142.005  27.211  0.00  0.00    -0.384 OA
ATOM     35  H   LIG    1       15.049 141.466  27.936  0.00  0.00    +0.210 HD
ENDBRANCH  26  34
ENDBRANCH  24  25
ENDBRANCH  23  24
ENDBRANCH  22  23
TORSDOF 13
ENDMDL
MODEL 8
REMARK VINA RESULT:      -6.8     20.670     24.219
REMARK  Name = 9823887
REMARK                            x       y       z     vdW  Elec       q    Type
REMARK                         _______ _______ _______ _____ _____    ______ ____
ROOT
ATOM      1  O   LIG    1       17.112 165.964  18.625  0.00  0.00    -0.341 OA
ATOM      2  C   LIG    1       18.403 166.023  18.024  0.00  0.00    +0.282 C 
ATOM      3  C   LIG    1       18.932 164.614  17.751  0.00  0.00    +0.201 C 
ATOM      4  C   LIG    1       17.935 163.795  16.932  0.00  0.00    +0.179 C 
ATOM      5  C   LIG    1       16.527 163.887  17.521  0.00  0.00    +0.177 C 
ATOM     22  C   LIG    1       16.141 165.346  17.779  0.00  0.00    +0.178 C 
ENDROOT
BRANCH   5   6
ATOM      6  O   LIG    1       15.596 163.307  16.610  0.00  0.00    -0.386 OA
ATOM      7  H   LIG    1       15.534 163.890  15.834  0.00  0.00    +0.210 HD
ENDBRANCH   5   6
BRANCH   4   8
ATOM      8  O   LIG    1       18.328 162.421  16.941  0.00  0.00    -0.386 OA
ATOM      9  H   LIG    1       18.423 162.140  16.015  0.00  0.00    +0.210 HD
ENDBRANCH   4   8
BRANCH   3  10
ATOM     10  O   LIG    1       20.157 164.729  17.029  0.00  0.00    -0.384 OA
ATOM     11  H   LIG    1       19.993 165.272  16.240  0.00  0.00    +0.210 HD
ENDBRANCH   3  10
BRANCH   2  12
ATOM     12  O   LIG    1       19.316 166.673  18.906  0.00  0.00    -0.345 OA
BRANCH  12  13
ATOM     13  C   LIG    1       19.295 166.085  20.197  0.00  0.00    +0.190 C 
BRANCH  13  14
ATOM     14  C   LIG    1       20.703 165.900  20.664  0.00  0.00    +0.001 C 
ATOM     15  C   LIG    1       21.077 166.029  21.947  0.00  0.00    +0.006 C 
BRANCH  15  16
ATOM     16  C   LIG    1       22.447 165.842  22.455  0.00  0.00    -0.025 A 
ATOM     17  C   LIG    1       22.942 164.557  22.614  0.00  0.00    +0.008 A 
ATOM     18  C   LIG    1       24.239 164.381  23.095  0.00  0.00    +0.001 A 
ATOM     19  C   LIG    1       25.023 165.489  23.413  0.00  0.00    +0.000 A 
ATOM     20  C   LIG    1       24.511 166.776  23.249  0.00  0.00    +0.001 A 
ATOM     21  C   LIG    1       23.213 166.953  22.767  0.00  0.00    +0.008 A 
ENDBRANCH  15  16
ENDBRANCH  13  14
ENDBRANCH  12  13
ENDBRANCH   2  12
BRANCH  22  23
ATOM     23  C   LIG    1       14.787 165.457  18.474  0.00  0.00    +0.197 C 
BRANCH  23  24
ATOM     24  O   LIG    1       14.619 164.331  19.317  0.00  0.00    -0.346 OA
BRANCH  24  25
ATOM     25  C   LIG    1       14.263 164.712  20.642  0.00  0.00    +0.281 C 
ATOM     26  C   LIG    1       13.143 163.799  21.165  0.00  0.00    +0.201 C 
ATOM     27  C   LIG    1       13.658 162.402  21.524  0.00  0.00    +0.178 C 
ATOM     28  C   LIG    1       14.904 162.511  22.405  0.00  0.00    +0.171 C 
ATOM     29  C   LIG    1       15.941 163.421  21.759  0.00  0.00    +0.197 C 
ATOM     36  O   LIG    1       15.393 164.716  21.521  0.00  0.00    -0.346 OA
BRANCH  28  30
ATOM     30  O   LIG    1       15.451 161.218  22.629  0.00  0.00    -0.387 OA
ATOM     31  H   LIG    1       14.866 160.756  23.254  0.00  0.00    +0.210 HD
ENDBRANCH  28  30
BRANCH  27  32
ATOM     32  O   LIG    1       13.986 161.692  20.331  0.00  0.00    -0.386 OA
ATOM     33  H   LIG    1       14.503 160.910  20.588  0.00  0.00    +0.210 HD
ENDBRANCH  27  32
BRANCH  26  34
ATOM     34  O   LIG    1       12.584 164.409  22.325  0.00  0.00    -0.384 OA
ATOM     35  H   LIG    1       12.495 165.363  22.160  0.00  0.00    +0.210 HD
ENDBRANCH  26  34
ENDBRANCH  24  25
ENDBRANCH  23  24
ENDBRANCH  22  23
TORSDOF 13
ENDMDL
MODEL 9
REMARK VINA RESULT:      -6.8     17.546     21.193
REMARK  Name = 9823887
REMARK                            x       y       z     vdW  Elec       q    Type
REMARK                         _______ _______ _______ _____ _____    ______ ____
ROOT
ATOM      1  O   LIG    1       21.911 160.633  28.025  0.00  0.00    -0.341 OA
ATOM      2  C   LIG    1       21.981 159.242  27.718  0.00  0.00    +0.282 C 
ATOM      3  C   LIG    1       20.577 158.646  27.615  0.00  0.00    +0.201 C 
ATOM      4  C   LIG    1       19.711 159.427  26.628  0.00  0.00    +0.179 C 
ATOM      5  C   LIG    1       19.789 160.930  26.892  0.00  0.00    +0.177 C 
ATOM     22  C   LIG    1       21.246 161.386  27.010  0.00  0.00    +0.178 C 
ENDROOT
BRANCH   5   6
ATOM      6  O   LIG    1       19.161 161.631  25.822  0.00  0.00    -0.386 OA
ATOM      7  H   LIG    1       18.591 162.319  26.207  0.00  0.00    +0.210 HD
ENDBRANCH   5   6
BRANCH   4   8
ATOM      8  O   LIG    1       18.347 159.025  26.770  0.00  0.00    -0.386 OA
ATOM      9  H   LIG    1       18.122 159.085  27.714  0.00  0.00    +0.210 HD
ENDBRANCH   4   8
BRANCH   3  10
ATOM     10  O   LIG    1       20.697 157.294  27.174  0.00  0.00    -0.384 OA
ATOM     11  H   LIG    1       20.258 157.218  26.310  0.00  0.00    +0.210 HD
ENDBRANCH   3  10
BRANCH   2  12
ATOM     12  O   LIG    1       22.678 158.554  28.754  0.00  0.00    -0.345 OA
BRANCH  12  13
ATOM     13  C   LIG    1       23.084 159.443  29.783  0.00  0.00    +0.190 C 
BRANCH  13  14
ATOM     14  C   LIG    1       23.530 158.642  30.963  0.00  0.00    +0.001 C 
ATOM     15  C   LIG    1       24.105 157.433  30.860  0.00  0.00    +0.006 C 
BRANCH  15  16
ATOM     16  C   LIG    1       24.573 156.616  31.992  0.00  0.00    -0.025 A 
ATOM     17  C   LIG    1       23.645 155.961  32.787  0.00  0.00    +0.008 A 
ATOM     18  C   LIG    1       24.088 155.187  33.858  0.00  0.00    +0.001 A 
ATOM     19  C   LIG    1       25.453 155.078  34.123  0.00  0.00    +0.000 A 
ATOM     20  C   LIG    1       26.376 155.742  33.315  0.00  0.00    +0.001 A 
ATOM     21  C   LIG    1       25.932 156.517  32.243  0.00  0.00    +0.008 A 
ENDBRANCH  15  16
ENDBRANCH  13  14
ENDBRANCH  12  13
ENDBRANCH   2  12
BRANCH  22  23
ATOM     23  C   LIG    1       21.347 162.861  27.389  0.00  0.00    +0.197 C 
BRANCH  23  24
ATOM     24  O   LIG    1       22.315 163.474  26.556  0.00  0.00    -0.346 OA
BRANCH  24  25
ATOM     25  C   LIG    1       22.867 164.640  27.158  0.00  0.00    +0.281 C 
ATOM     26  C   LIG    1       24.326 164.378  27.563  0.00  0.00    +0.201 C 
ATOM     27  C   LIG    1       25.264 164.354  26.351  0.00  0.00    +0.178 C 
ATOM     28  C   LIG    1       25.020 165.580  25.471  0.00  0.00    +0.171 C 
ATOM     29  C   LIG    1       23.542 165.707  25.125  0.00  0.00    +0.197 C 
ATOM     36  O   LIG    1       22.753 165.787  26.309  0.00  0.00    -0.346 OA
BRANCH  28  30
ATOM     30  O   LIG    1       25.800 165.488  24.288  0.00  0.00    -0.387 OA
ATOM     31  H   LIG    1       25.232 165.124  23.588  0.00  0.00    +0.210 HD
ENDBRANCH  28  30
BRANCH  27  32
ATOM     32  O   LIG    1       25.029 163.172  25.588  0.00  0.00    -0.386 OA
ATOM     33  H   LIG    1       24.421 163.406  24.866  0.00  0.00    +0.210 HD
ENDBRANCH  27  32
BRANCH  26  34
ATOM     34  O   LIG    1       24.730 165.417  28.452  0.00  0.00    -0.384 OA
ATOM     35  H   LIG    1       24.390 165.211  29.339  0.00  0.00    +0.210 HD
ENDBRANCH  26  34
ENDBRANCH  24  25
ENDBRANCH  23  24
ENDBRANCH  22  23
TORSDOF 13
ENDMDL
