MODEL 1
REMARK VINA RESULT:      -8.4      0.000      0.000
REMARK  Name = 5280805
REMARK                            x       y       z     vdW  Elec       q    Type
REMARK                         _______ _______ _______ _____ _____    ______ ____
ROOT
ATOM      1  O   LIG    1       13.596 146.884  32.884  0.00  0.00    -0.331 OA
ATOM      2  C   LIG    1       12.526 145.942  32.901  0.00  0.00    +0.340 C 
ATOM      3  C   LIG    1       12.775 144.865  33.957  0.00  0.00    +0.214 C 
ATOM      4  C   LIG    1       13.040 145.484  35.330  0.00  0.00    +0.180 C 
ATOM      5  C   LIG    1       14.080 146.601  35.242  0.00  0.00    +0.177 C 
ATOM     38  C   LIG    1       13.728 147.584  34.123  0.00  0.00    +0.179 C 
ENDROOT
BRANCH   5   6
ATOM      6  O   LIG    1       14.127 147.299  36.484  0.00  0.00    -0.386 OA
ATOM      7  H   LIG    1       13.585 146.810  37.125  0.00  0.00    +0.210 HD
ENDBRANCH   5   6
BRANCH   4   8
ATOM      8  O   LIG    1       13.543 144.481  36.215  0.00  0.00    -0.386 OA
ATOM      9  H   LIG    1       14.493 144.382  36.033  0.00  0.00    +0.210 HD
ENDBRANCH   4   8
BRANCH   3  10
ATOM     10  O   LIG    1       11.619 144.031  34.028  0.00  0.00    -0.383 OA
ATOM     11  H   LIG    1       11.232 143.976  33.139  0.00  0.00    +0.210 HD
ENDBRANCH   3  10
BRANCH   2  12
ATOM     12  O   LIG    1       12.431 145.298  31.631  0.00  0.00    -0.453 OA
BRANCH  12  13
ATOM     13  C   LIG    1       11.510 145.919  30.816  0.00  0.00    +0.214 A 
ATOM     14  C   LIG    1       10.290 146.481  31.443  0.00  0.00    +0.238 A 
ATOM     15  C   LIG    1        9.342 147.154  30.541  0.00  0.00    +0.109 A 
ATOM     16  C   LIG    1        8.161 147.715  31.036  0.00  0.00    +0.135 A 
ATOM     17  C   LIG    1        7.281 148.350  30.157  0.00  0.00    +0.091 A 
ATOM     18  C   LIG    1        7.580 148.423  28.797  0.00  0.00    +0.124 A 
ATOM     19  C   LIG    1        8.760 147.863  28.307  0.00  0.00    +0.092 A 
ATOM     24  C   LIG    1        9.641 147.227  29.183  0.00  0.00    +0.147 A 
ATOM     25  O   LIG    1       10.785 146.697  28.644  0.00  0.00    -0.451 OA
ATOM     26  O   LIG    1       10.083 146.391  32.646  0.00  0.00    -0.283 OA
ATOM     27  C   LIG    1       11.675 146.050  29.486  0.00  0.00    +0.181 A 
BRANCH  27  28
ATOM     28  C   LIG    1       12.859 145.528  28.781  0.00  0.00    +0.025 A 
ATOM     29  C   LIG    1       13.025 144.153  28.619  0.00  0.00    +0.015 A 
ATOM     30  C   LIG    1       14.145 143.660  27.951  0.00  0.00    +0.050 A 
ATOM     31  C   LIG    1       15.101 144.541  27.446  0.00  0.00    +0.158 A 
ATOM     32  C   LIG    1       14.936 145.916  27.608  0.00  0.00    +0.159 A 
ATOM     37  C   LIG    1       13.815 146.410  28.275  0.00  0.00    +0.060 A 
BRANCH  32  33
ATOM     33  O   LIG    1       15.862 146.787  27.117  0.00  0.00    -0.503 OA
ATOM     34  H   LIG    1       16.633 146.810  27.707  0.00  0.00    +0.292 HD
ENDBRANCH  32  33
BRANCH  31  35
ATOM     35  O   LIG    1       16.192 144.047  26.797  0.00  0.00    -0.503 OA
ATOM     36  H   LIG    1       15.949 143.798  25.891  0.00  0.00    +0.292 HD
ENDBRANCH  31  35
ENDBRANCH  27  28
BRANCH  18  20
ATOM     20  O   LIG    1        6.719 149.044  27.944  0.00  0.00    -0.507 OA
ATOM     21  H   LIG    1        6.083 149.565  28.463  0.00  0.00    +0.292 HD
ENDBRANCH  18  20
BRANCH  16  22
ATOM     22  O   LIG    1        7.822 147.671  32.354  0.00  0.00    -0.506 OA
ATOM     23  H   LIG    1        7.667 148.575  32.679  0.00  0.00    +0.292 HD
ENDBRANCH  16  22
ENDBRANCH  12  13
ENDBRANCH   2  12
BRANCH  38  39
ATOM     39  C   LIG    1       14.811 148.642  33.939  0.00  0.00    +0.197 C 
BRANCH  39  40
ATOM     40  O   LIG    1       14.613 149.295  32.693  0.00  0.00    -0.346 OA
BRANCH  40  41
ATOM     41  C   LIG    1       13.572 150.262  32.771  0.00  0.00    +0.282 C 
ATOM     42  C   LIG    1       14.167 151.668  32.707  0.00  0.00    +0.201 C 
ATOM     43  C   LIG    1       14.704 151.969  31.306  0.00  0.00    +0.179 C 
ATOM     44  C   LIG    1       13.643 151.691  30.241  0.00  0.00    +0.174 C 
ATOM     45  C   LIG    1       13.074 150.277  30.420  0.00  0.00    +0.149 C 
ATOM     46  C   LIG    1       11.908 150.006  29.472  0.00  0.00    +0.041 C 
ATOM     53  O   LIG    1       12.584 150.084  31.751  0.00  0.00    -0.343 OA
BRANCH  44  47
ATOM     47  O   LIG    1       14.256 151.818  28.960  0.00  0.00    -0.387 OA
ATOM     48  H   LIG    1       14.565 150.937  28.689  0.00  0.00    +0.210 HD
ENDBRANCH  44  47
BRANCH  43  49
ATOM     49  O   LIG    1       15.106 153.334  31.224  0.00  0.00    -0.386 OA
ATOM     50  H   LIG    1       15.707 153.421  30.465  0.00  0.00    +0.210 HD
ENDBRANCH  43  49
BRANCH  42  51
ATOM     51  O   LIG    1       13.132 152.594  33.041  0.00  0.00    -0.384 OA
ATOM     52  H   LIG    1       12.809 153.003  32.219  0.00  0.00    +0.210 HD
ENDBRANCH  42  51
ENDBRANCH  40  41
ENDBRANCH  39  40
ENDBRANCH  38  39
TORSDOF 16
ENDMDL
MODEL 2
REMARK VINA RESULT:      -8.3      1.792      5.186
REMARK  Name = 5280805
REMARK                            x       y       z     vdW  Elec       q    Type
REMARK                         _______ _______ _______ _____ _____    ______ ____
ROOT
ATOM      1  O   LIG    1       10.273 146.881  30.033  0.00  0.00    -0.331 OA
ATOM      2  C   LIG    1       10.072 146.148  28.826  0.00  0.00    +0.340 C 
ATOM      3  C   LIG    1        8.646 146.345  28.310  0.00  0.00    +0.214 C 
ATOM      4  C   LIG    1        8.309 147.829  28.164  0.00  0.00    +0.180 C 
ATOM      5  C   LIG    1        8.687 148.609  29.422  0.00  0.00    +0.177 C 
ATOM     38  C   LIG    1       10.122 148.290  29.849  0.00  0.00    +0.179 C 
ENDROOT
BRANCH   5   6
ATOM      6  O   LIG    1        8.573 150.006  29.162  0.00  0.00    -0.386 OA
ATOM      7  H   LIG    1        8.232 150.117  28.259  0.00  0.00    +0.210 HD
ENDBRANCH   5   6
BRANCH   4   8
ATOM      8  O   LIG    1        6.902 147.978  27.958  0.00  0.00    -0.386 OA
ATOM      9  H   LIG    1        6.526 147.087  27.858  0.00  0.00    +0.210 HD
ENDBRANCH   4   8
BRANCH   3  10
ATOM     10  O   LIG    1        8.538 145.707  27.038  0.00  0.00    -0.383 OA
ATOM     11  H   LIG    1        7.735 145.160  27.042  0.00  0.00    +0.210 HD
ENDBRANCH   3  10
BRANCH   2  12
ATOM     12  O   LIG    1       10.262 144.755  29.072  0.00  0.00    -0.453 OA
BRANCH  12  13
ATOM     13  C   LIG    1       10.774 144.527  30.330  0.00  0.00    +0.214 A 
ATOM     14  C   LIG    1        9.825 144.464  31.468  0.00  0.00    +0.238 A 
ATOM     15  C   LIG    1       10.410 144.197  32.791  0.00  0.00    +0.109 A 
ATOM     16  C   LIG    1        9.600 144.121  33.928  0.00  0.00    +0.135 A 
ATOM     17  C   LIG    1       10.181 143.864  35.170  0.00  0.00    +0.091 A 
ATOM     18  C   LIG    1       11.561 143.685  35.276  0.00  0.00    +0.124 A 
ATOM     19  C   LIG    1       12.366 143.761  34.139  0.00  0.00    +0.092 A 
ATOM     24  C   LIG    1       11.788 144.018  32.896  0.00  0.00    +0.147 A 
ATOM     25  O   LIG    1       12.629 144.081  31.815  0.00  0.00    -0.451 OA
ATOM     26  O   LIG    1        8.622 144.624  31.314  0.00  0.00    -0.283 OA
ATOM     27  C   LIG    1       12.086 144.344  30.568  0.00  0.00    +0.181 A 
BRANCH  27  28
ATOM     28  C   LIG    1       13.097 144.383  29.497  0.00  0.00    +0.025 A 
ATOM     29  C   LIG    1       13.284 143.274  28.672  0.00  0.00    +0.015 A 
ATOM     30  C   LIG    1       14.241 143.311  27.658  0.00  0.00    +0.050 A 
ATOM     31  C   LIG    1       15.013 144.458  27.469  0.00  0.00    +0.158 A 
ATOM     32  C   LIG    1       14.827 145.567  28.293  0.00  0.00    +0.159 A 
ATOM     37  C   LIG    1       13.869 145.530  29.307  0.00  0.00    +0.060 A 
BRANCH  32  33
ATOM     33  O   LIG    1       15.573 146.693  28.118  0.00  0.00    -0.503 OA
ATOM     34  H   LIG    1       16.490 146.448  27.909  0.00  0.00    +0.292 HD
ENDBRANCH  32  33
BRANCH  31  35
ATOM     35  O   LIG    1       15.946 144.482  26.477  0.00  0.00    -0.503 OA
ATOM     36  H   LIG    1       15.617 145.008  25.731  0.00  0.00    +0.292 HD
ENDBRANCH  31  35
ENDBRANCH  27  28
BRANCH  18  20
ATOM     20  O   LIG    1       12.123 143.435  36.490  0.00  0.00    -0.507 OA
ATOM     21  H   LIG    1       12.033 144.225  37.049  0.00  0.00    +0.292 HD
ENDBRANCH  18  20
BRANCH  16  22
ATOM     22  O   LIG    1        8.249 144.288  33.880  0.00  0.00    -0.506 OA
ATOM     23  H   LIG    1        8.042 145.234  33.792  0.00  0.00    +0.292 HD
ENDBRANCH  16  22
ENDBRANCH  12  13
ENDBRANCH   2  12
BRANCH  38  39
ATOM     39  C   LIG    1       10.484 148.966  31.167  0.00  0.00    +0.197 C 
BRANCH  39  40
ATOM     40  O   LIG    1       11.400 150.021  30.909  0.00  0.00    -0.346 OA
BRANCH  40  41
ATOM     41  C   LIG    1       12.657 149.522  30.462  0.00  0.00    +0.282 C 
ATOM     42  C   LIG    1       13.194 150.407  29.339  0.00  0.00    +0.201 C 
ATOM     43  C   LIG    1       13.628 151.771  29.880  0.00  0.00    +0.179 C 
ATOM     44  C   LIG    1       14.585 151.611  31.063  0.00  0.00    +0.174 C 
ATOM     45  C   LIG    1       13.977 150.669  32.110  0.00  0.00    +0.149 C 
ATOM     46  C   LIG    1       14.956 150.363  33.241  0.00  0.00    +0.041 C 
ATOM     53  O   LIG    1       13.610 149.416  31.523  0.00  0.00    -0.343 OA
BRANCH  44  47
ATOM     47  O   LIG    1       14.808 152.901  31.629  0.00  0.00    -0.387 OA
ATOM     48  H   LIG    1       15.756 152.977  31.830  0.00  0.00    +0.210 HD
ENDBRANCH  44  47
BRANCH  43  49
ATOM     49  O   LIG    1       14.273 152.519  28.852  0.00  0.00    -0.386 OA
ATOM     50  H   LIG    1       13.601 153.079  28.427  0.00  0.00    +0.210 HD
ENDBRANCH  43  49
BRANCH  42  51
ATOM     51  O   LIG    1       14.312 149.737  28.755  0.00  0.00    -0.384 OA
ATOM     52  H   LIG    1       15.022 149.688  29.418  0.00  0.00    +0.210 HD
ENDBRANCH  42  51
ENDBRANCH  40  41
ENDBRANCH  39  40
ENDBRANCH  38  39
TORSDOF 16
ENDMDL
MODEL 3
REMARK VINA RESULT:      -8.3      1.795      2.724
REMARK  Name = 5280805
REMARK                            x       y       z     vdW  Elec       q    Type
REMARK                         _______ _______ _______ _____ _____    ______ ____
ROOT
ATOM      1  O   LIG    1       13.529 147.423  32.188  0.00  0.00    -0.331 OA
ATOM      2  C   LIG    1       13.038 146.222  32.779  0.00  0.00    +0.340 C 
ATOM      3  C   LIG    1       13.930 145.793  33.944  0.00  0.00    +0.214 C 
ATOM      4  C   LIG    1       14.101 146.924  34.958  0.00  0.00    +0.180 C 
ATOM      5  C   LIG    1       14.473 148.236  34.267  0.00  0.00    +0.177 C 
ATOM     38  C   LIG    1       13.526 148.523  33.100  0.00  0.00    +0.179 C 
ENDROOT
BRANCH   5   6
ATOM      6  O   LIG    1       14.397 149.303  35.209  0.00  0.00    -0.386 OA
ATOM      7  H   LIG    1       13.750 149.056  35.891  0.00  0.00    +0.210 HD
ENDBRANCH   5   6
BRANCH   4   8
ATOM      8  O   LIG    1       15.151 146.592  35.868  0.00  0.00    -0.386 OA
ATOM      9  H   LIG    1       15.115 147.230  36.601  0.00  0.00    +0.210 HD
ENDBRANCH   4   8
BRANCH   3  10
ATOM     10  O   LIG    1       13.323 144.671  34.583  0.00  0.00    -0.383 OA
ATOM     11  H   LIG    1       12.487 144.479  34.125  0.00  0.00    +0.210 HD
ENDBRANCH   3  10
BRANCH   2  12
ATOM     12  O   LIG    1       13.043 145.173  31.811  0.00  0.00    -0.453 OA
BRANCH  12  13
ATOM     13  C   LIG    1       11.846 145.103  31.133  0.00  0.00    +0.214 A 
ATOM     14  C   LIG    1       10.593 145.231  31.915  0.00  0.00    +0.238 A 
ATOM     15  C   LIG    1        9.337 145.172  31.150  0.00  0.00    +0.109 A 
ATOM     16  C   LIG    1        8.102 145.281  31.795  0.00  0.00    +0.135 A 
ATOM     17  C   LIG    1        6.927 145.225  31.045  0.00  0.00    +0.091 A 
ATOM     18  C   LIG    1        6.986 145.061  29.660  0.00  0.00    +0.124 A 
ATOM     19  C   LIG    1        8.220 144.954  29.020  0.00  0.00    +0.092 A 
ATOM     24  C   LIG    1        9.397 145.009  29.768  0.00  0.00    +0.147 A 
ATOM     25  O   LIG    1       10.580 144.899  29.083  0.00  0.00    -0.451 OA
ATOM     26  O   LIG    1       10.602 145.378  33.129  0.00  0.00    -0.283 OA
ATOM     27  C   LIG    1       11.766 144.940  29.799  0.00  0.00    +0.181 A 
BRANCH  27  28
ATOM     28  C   LIG    1       12.958 144.812  28.944  0.00  0.00    +0.025 A 
ATOM     29  C   LIG    1       13.318 143.566  28.430  0.00  0.00    +0.015 A 
ATOM     30  C   LIG    1       14.447 143.444  27.621  0.00  0.00    +0.050 A 
ATOM     31  C   LIG    1       15.218 144.568  27.326  0.00  0.00    +0.158 A 
ATOM     32  C   LIG    1       14.860 145.814  27.839  0.00  0.00    +0.159 A 
ATOM     37  C   LIG    1       13.730 145.936  28.648  0.00  0.00    +0.060 A 
BRANCH  32  33
ATOM     33  O   LIG    1       15.604 146.920  27.557  0.00  0.00    -0.503 OA
ATOM     34  H   LIG    1       15.184 147.422  26.839  0.00  0.00    +0.292 HD
ENDBRANCH  32  33
BRANCH  31  35
ATOM     35  O   LIG    1       16.320 144.437  26.535  0.00  0.00    -0.503 OA
ATOM     36  H   LIG    1       17.058 144.937  26.917  0.00  0.00    +0.292 HD
ENDBRANCH  31  35
ENDBRANCH  27  28
BRANCH  18  20
ATOM     20  O   LIG    1        5.837 145.007  28.933  0.00  0.00    -0.507 OA
ATOM     21  H   LIG    1        5.982 144.441  28.155  0.00  0.00    +0.292 HD
ENDBRANCH  18  20
BRANCH  16  22
ATOM     22  O   LIG    1        7.989 145.442  33.143  0.00  0.00    -0.506 OA
ATOM     23  H   LIG    1        8.048 146.388  33.362  0.00  0.00    +0.292 HD
ENDBRANCH  16  22
ENDBRANCH  12  13
ENDBRANCH   2  12
BRANCH  38  39
ATOM     39  C   LIG    1       13.947 149.766  32.322  0.00  0.00    +0.197 C 
BRANCH  39  40
ATOM     40  O   LIG    1       12.793 150.540  32.028  0.00  0.00    -0.346 OA
BRANCH  40  41
ATOM     41  C   LIG    1       12.772 150.948  30.664  0.00  0.00    +0.282 C 
ATOM     42  C   LIG    1       12.625 149.723  29.762  0.00  0.00    +0.201 C 
ATOM     43  C   LIG    1       11.222 149.124  29.881  0.00  0.00    +0.179 C 
ATOM     44  C   LIG    1       10.150 150.192  29.664  0.00  0.00    +0.174 C 
ATOM     45  C   LIG    1       10.413 151.397  30.577  0.00  0.00    +0.149 C 
ATOM     46  C   LIG    1        9.454 152.551  30.293  0.00  0.00    +0.041 C 
ATOM     53  O   LIG    1       11.740 151.902  30.395  0.00  0.00    -0.343 OA
BRANCH  44  47
ATOM     47  O   LIG    1        8.881 149.614  29.962  0.00  0.00    -0.387 OA
ATOM     48  H   LIG    1        8.628 149.898  30.857  0.00  0.00    +0.210 HD
ENDBRANCH  44  47
BRANCH  43  49
ATOM     49  O   LIG    1       11.054 148.087  28.918  0.00  0.00    -0.386 OA
ATOM     50  H   LIG    1       10.665 148.484  28.120  0.00  0.00    +0.210 HD
ENDBRANCH  43  49
BRANCH  42  51
ATOM     51  O   LIG    1       12.862 150.143  28.417  0.00  0.00    -0.384 OA
ATOM     52  H   LIG    1       13.517 150.862  28.431  0.00  0.00    +0.210 HD
ENDBRANCH  42  51
ENDBRANCH  40  41
ENDBRANCH  39  40
ENDBRANCH  38  39
TORSDOF 16
ENDMDL
MODEL 4
REMARK VINA RESULT:      -8.1     16.374     21.218
REMARK  Name = 5280805
REMARK                            x       y       z     vdW  Elec       q    Type
REMARK                         _______ _______ _______ _____ _____    ______ ____
ROOT
ATOM      1  O   LIG    1       16.449 163.961  19.804  0.00  0.00    -0.331 OA
ATOM      2  C   LIG    1       16.158 163.390  21.078  0.00  0.00    +0.340 C 
ATOM      3  C   LIG    1       14.677 163.559  21.416  0.00  0.00    +0.214 C 
ATOM      4  C   LIG    1       13.786 163.007  20.302  0.00  0.00    +0.180 C 
ATOM      5  C   LIG    1       14.231 163.518  18.932  0.00  0.00    +0.177 C 
ATOM     38  C   LIG    1       15.737 163.323  18.742  0.00  0.00    +0.179 C 
ENDROOT
BRANCH   5   6
ATOM      6  O   LIG    1       13.532 162.807  17.914  0.00  0.00    -0.386 OA
ATOM      7  H   LIG    1       13.178 161.991  18.306  0.00  0.00    +0.210 HD
ENDBRANCH   5   6
BRANCH   4   8
ATOM      8  O   LIG    1       12.439 163.432  20.516  0.00  0.00    -0.386 OA
ATOM      9  H   LIG    1       12.172 163.955  19.741  0.00  0.00    +0.210 HD
ENDBRANCH   4   8
BRANCH   3  10
ATOM     10  O   LIG    1       14.411 162.855  22.629  0.00  0.00    -0.383 OA
ATOM     11  H   LIG    1       13.886 163.435  23.205  0.00  0.00    +0.210 HD
ENDBRANCH   3  10
BRANCH   2  12
ATOM     12  O   LIG    1       16.918 164.053  22.088  0.00  0.00    -0.453 OA
BRANCH  12  13
ATOM     13  C   LIG    1       17.969 163.276  22.524  0.00  0.00    +0.214 A 
ATOM     14  C   LIG    1       17.694 162.248  23.556  0.00  0.00    +0.238 A 
ATOM     15  C   LIG    1       18.838 161.425  23.978  0.00  0.00    +0.109 A 
ATOM     16  C   LIG    1       18.683 160.430  24.948  0.00  0.00    +0.135 A 
ATOM     17  C   LIG    1       19.785 159.663  25.328  0.00  0.00    +0.091 A 
ATOM     18  C   LIG    1       21.032 159.889  24.745  0.00  0.00    +0.124 A 
ATOM     19  C   LIG    1       21.183 160.882  23.777  0.00  0.00    +0.092 A 
ATOM     24  C   LIG    1       20.083 161.651  23.395  0.00  0.00    +0.147 A 
ATOM     25  O   LIG    1       20.292 162.612  22.440  0.00  0.00    -0.451 OA
ATOM     26  O   LIG    1       16.576 162.091  24.029  0.00  0.00    -0.283 OA
ATOM     27  C   LIG    1       19.221 163.399  22.046  0.00  0.00    +0.181 A 
BRANCH  27  28
ATOM     28  C   LIG    1       19.582 164.388  21.016  0.00  0.00    +0.025 A 
ATOM     29  C   LIG    1       19.963 165.677  21.389  0.00  0.00    +0.015 A 
ATOM     30  C   LIG    1       20.305 166.613  20.414  0.00  0.00    +0.050 A 
ATOM     31  C   LIG    1       20.265 166.262  19.064  0.00  0.00    +0.158 A 
ATOM     32  C   LIG    1       19.885 164.973  18.691  0.00  0.00    +0.159 A 
ATOM     37  C   LIG    1       19.543 164.036  19.667  0.00  0.00    +0.060 A 
BRANCH  32  33
ATOM     33  O   LIG    1       19.843 164.617  17.376  0.00  0.00    -0.503 OA
ATOM     34  H   LIG    1       19.203 163.898  17.253  0.00  0.00    +0.292 HD
ENDBRANCH  32  33
BRANCH  31  35
ATOM     35  O   LIG    1       20.599 167.185  18.121  0.00  0.00    -0.503 OA
ATOM     36  H   LIG    1       20.533 166.790  17.238  0.00  0.00    +0.292 HD
ENDBRANCH  31  35
ENDBRANCH  27  28
BRANCH  18  20
ATOM     20  O   LIG    1       22.104 159.137  25.119  0.00  0.00    -0.507 OA
ATOM     21  H   LIG    1       22.746 159.119  24.389  0.00  0.00    +0.292 HD
ENDBRANCH  18  20
BRANCH  16  22
ATOM     22  O   LIG    1       17.489 160.169  25.548  0.00  0.00    -0.506 OA
ATOM     23  H   LIG    1       17.632 159.995  26.494  0.00  0.00    +0.292 HD
ENDBRANCH  16  22
ENDBRANCH  12  13
ENDBRANCH   2  12
BRANCH  38  39
ATOM     39  C   LIG    1       16.225 163.931  17.431  0.00  0.00    +0.197 C 
BRANCH  39  40
ATOM     40  O   LIG    1       15.687 163.186  16.348  0.00  0.00    -0.346 OA
BRANCH  40  41
ATOM     41  C   LIG    1       15.639 163.963  15.155  0.00  0.00    +0.282 C 
ATOM     42  C   LIG    1       14.868 163.204  14.076  0.00  0.00    +0.201 C 
ATOM     43  C   LIG    1       13.377 163.142  14.413  0.00  0.00    +0.179 C 
ATOM     44  C   LIG    1       12.825 164.536  14.711  0.00  0.00    +0.174 C 
ATOM     45  C   LIG    1       13.693 165.233  15.767  0.00  0.00    +0.149 C 
ATOM     46  C   LIG    1       13.268 166.682  15.992  0.00  0.00    +0.041 C 
ATOM     53  O   LIG    1       15.068 165.257  15.369  0.00  0.00    -0.343 OA
BRANCH  44  47
ATOM     47  O   LIG    1       11.489 164.392  15.187  0.00  0.00    -0.387 OA
ATOM     48  H   LIG    1       11.163 163.521  14.901  0.00  0.00    +0.210 HD
ENDBRANCH  44  47
BRANCH  43  49
ATOM     49  O   LIG    1       12.656 162.575  13.322  0.00  0.00    -0.386 OA
ATOM     50  H   LIG    1       12.715 161.607  13.398  0.00  0.00    +0.210 HD
ENDBRANCH  43  49
BRANCH  42  51
ATOM     51  O   LIG    1       15.060 163.892  12.839  0.00  0.00    -0.384 OA
ATOM     52  H   LIG    1       14.286 164.460  12.681  0.00  0.00    +0.210 HD
ENDBRANCH  42  51
ENDBRANCH  40  41
ENDBRANCH  39  40
ENDBRANCH  38  39
TORSDOF 16
ENDMDL
MODEL 5
REMARK VINA RESULT:      -8.1      3.944      8.544
REMARK  Name = 5280805
REMARK                            x       y       z     vdW  Elec       q    Type
REMARK                         _______ _______ _______ _____ _____    ______ ____
ROOT
ATOM      1  O   LIG    1       13.092 143.696  29.416  0.00  0.00    -0.331 OA
ATOM      2  C   LIG    1       13.283 145.067  29.070  0.00  0.00    +0.340 C 
ATOM      3  C   LIG    1       14.616 145.257  28.347  0.00  0.00    +0.214 C 
ATOM      4  C   LIG    1       14.735 144.321  27.144  0.00  0.00    +0.180 C 
ATOM      5  C   LIG    1       14.367 142.886  27.521  0.00  0.00    +0.177 C 
ATOM     38  C   LIG    1       13.033 142.845  28.270  0.00  0.00    +0.179 C 
ENDROOT
BRANCH   5   6
ATOM      6  O   LIG    1       14.266 142.099  26.337  0.00  0.00    -0.386 OA
ATOM      7  H   LIG    1       14.655 141.227  26.521  0.00  0.00    +0.210 HD
ENDBRANCH   5   6
BRANCH   4   8
ATOM      8  O   LIG    1       16.083 144.322  26.672  0.00  0.00    -0.386 OA
ATOM      9  H   LIG    1       16.436 143.424  26.798  0.00  0.00    +0.210 HD
ENDBRANCH   4   8
BRANCH   3  10
ATOM     10  O   LIG    1       14.696 146.611  27.903  0.00  0.00    -0.383 OA
ATOM     11  H   LIG    1       15.429 147.040  28.376  0.00  0.00    +0.210 HD
ENDBRANCH   3  10
BRANCH   2  12
ATOM     12  O   LIG    1       13.307 145.864  30.253  0.00  0.00    -0.453 OA
BRANCH  12  13
ATOM     13  C   LIG    1       12.211 146.695  30.327  0.00  0.00    +0.214 A 
ATOM     14  C   LIG    1       12.401 148.130  30.005  0.00  0.00    +0.238 A 
ATOM     15  C   LIG    1       11.202 148.979  30.075  0.00  0.00    +0.109 A 
ATOM     16  C   LIG    1       11.277 150.345  29.791  0.00  0.00    +0.135 A 
ATOM     17  C   LIG    1       10.123 151.127  29.863  0.00  0.00    +0.091 A 
ATOM     18  C   LIG    1        8.904 150.548  30.215  0.00  0.00    +0.124 A 
ATOM     19  C   LIG    1        8.832 149.183  30.497  0.00  0.00    +0.092 A 
ATOM     24  C   LIG    1        9.985 148.399  30.426  0.00  0.00    +0.147 A 
ATOM     25  O   LIG    1        9.852 147.065  30.713  0.00  0.00    -0.451 OA
ATOM     26  O   LIG    1       13.495 148.582  29.697  0.00  0.00    -0.283 OA
ATOM     27  C   LIG    1       10.981 146.262  30.661  0.00  0.00    +0.181 A 
BRANCH  27  28
ATOM     28  C   LIG    1       10.700 144.854  30.990  0.00  0.00    +0.025 A 
ATOM     29  C   LIG    1       11.128 144.321  32.206  0.00  0.00    +0.015 A 
ATOM     30  C   LIG    1       10.862 142.988  32.517  0.00  0.00    +0.050 A 
ATOM     31  C   LIG    1       10.168 142.186  31.611  0.00  0.00    +0.158 A 
ATOM     32  C   LIG    1        9.739 142.717  30.396  0.00  0.00    +0.159 A 
ATOM     37  C   LIG    1       10.005 144.051  30.085  0.00  0.00    +0.060 A 
BRANCH  32  33
ATOM     33  O   LIG    1        9.059 141.944  29.504  0.00  0.00    -0.503 OA
ATOM     34  H   LIG    1        8.204 141.683  29.883  0.00  0.00    +0.292 HD
ENDBRANCH  32  33
BRANCH  31  35
ATOM     35  O   LIG    1        9.915 140.885  31.925  0.00  0.00    -0.503 OA
ATOM     36  H   LIG    1       10.594 140.315  31.531  0.00  0.00    +0.292 HD
ENDBRANCH  31  35
ENDBRANCH  27  28
BRANCH  18  20
ATOM     20  O   LIG    1        7.781 151.314  30.283  0.00  0.00    -0.507 OA
ATOM     21  H   LIG    1        7.033 150.755  30.557  0.00  0.00    +0.292 HD
ENDBRANCH  18  20
BRANCH  16  22
ATOM     22  O   LIG    1       12.441 150.961  29.442  0.00  0.00    -0.506 OA
ATOM     23  H   LIG    1       12.524 151.798  29.931  0.00  0.00    +0.292 HD
ENDBRANCH  16  22
ENDBRANCH  12  13
ENDBRANCH   2  12
BRANCH  38  39
ATOM     39  C   LIG    1       12.702 141.439  28.759  0.00  0.00    +0.197 C 
BRANCH  39  40
ATOM     40  O   LIG    1       11.651 140.909  27.963  0.00  0.00    -0.346 OA
BRANCH  40  41
ATOM     41  C   LIG    1       11.949 139.590  27.517  0.00  0.00    +0.282 C 
ATOM     42  C   LIG    1       10.688 138.730  27.569  0.00  0.00    +0.201 C 
ATOM     43  C   LIG    1        9.691 139.156  26.489  0.00  0.00    +0.179 C 
ATOM     44  C   LIG    1       10.360 139.201  25.115  0.00  0.00    +0.174 C 
ATOM     45  C   LIG    1       11.639 140.047  25.178  0.00  0.00    +0.149 C 
ATOM     46  C   LIG    1       12.420 140.001  23.867  0.00  0.00    +0.041 C 
ATOM     53  O   LIG    1       12.518 139.574  26.204  0.00  0.00    -0.343 OA
BRANCH  44  47
ATOM     47  O   LIG    1        9.436 139.772  24.191  0.00  0.00    -0.387 OA
ATOM     48  H   LIG    1        9.243 139.103  23.512  0.00  0.00    +0.210 HD
ENDBRANCH  44  47
BRANCH  43  49
ATOM     49  O   LIG    1        8.597 138.243  26.450  0.00  0.00    -0.386 OA
ATOM     50  H   LIG    1        8.963 137.346  26.366  0.00  0.00    +0.210 HD
ENDBRANCH  43  49
BRANCH  42  51
ATOM     51  O   LIG    1       11.079 137.372  27.362  0.00  0.00    -0.384 OA
ATOM     52  H   LIG    1       11.990 137.363  27.023  0.00  0.00    +0.210 HD
ENDBRANCH  42  51
ENDBRANCH  40  41
ENDBRANCH  39  40
ENDBRANCH  38  39
TORSDOF 16
ENDMDL
MODEL 6
REMARK VINA RESULT:      -8.0      1.980      6.960
REMARK  Name = 5280805
REMARK                            x       y       z     vdW  Elec       q    Type
REMARK                         _______ _______ _______ _____ _____    ______ ____
ROOT
ATOM      1  O   LIG    1       12.486 151.203  31.939  0.00  0.00    -0.331 OA
ATOM      2  C   LIG    1       12.966 150.984  30.615  0.00  0.00    +0.340 C 
ATOM      3  C   LIG    1       13.680 152.230  30.090  0.00  0.00    +0.214 C 
ATOM      4  C   LIG    1       14.779 152.687  31.050  0.00  0.00    +0.180 C 
ATOM      5  C   LIG    1       14.264 152.756  32.488  0.00  0.00    +0.177 C 
ATOM     38  C   LIG    1       13.540 151.462  32.868  0.00  0.00    +0.179 C 
ENDROOT
BRANCH   5   6
ATOM      6  O   LIG    1       15.364 152.958  33.372  0.00  0.00    -0.386 OA
ATOM      7  H   LIG    1       16.108 153.306  32.852  0.00  0.00    +0.210 HD
ENDBRANCH   5   6
BRANCH   4   8
ATOM      8  O   LIG    1       15.223 153.993  30.676  0.00  0.00    -0.386 OA
ATOM      9  H   LIG    1       14.960 154.136  29.751  0.00  0.00    +0.210 HD
ENDBRANCH   4   8
BRANCH   3  10
ATOM     10  O   LIG    1       14.257 151.915  28.823  0.00  0.00    -0.383 OA
ATOM     11  H   LIG    1       15.151 151.565  28.978  0.00  0.00    +0.210 HD
ENDBRANCH   3  10
BRANCH   2  12
ATOM     12  O   LIG    1       11.870 150.705  29.745  0.00  0.00    -0.453 OA
BRANCH  12  13
ATOM     13  C   LIG    1       11.639 149.352  29.638  0.00  0.00    +0.214 A 
ATOM     14  C   LIG    1       12.777 148.477  29.267  0.00  0.00    +0.238 A 
ATOM     15  C   LIG    1       12.493 147.036  29.185  0.00  0.00    +0.109 A 
ATOM     16  C   LIG    1       13.500 146.129  28.841  0.00  0.00    +0.135 A 
ATOM     17  C   LIG    1       13.203 144.766  28.772  0.00  0.00    +0.091 A 
ATOM     18  C   LIG    1       11.911 144.315  29.045  0.00  0.00    +0.124 A 
ATOM     19  C   LIG    1       10.910 145.224  29.388  0.00  0.00    +0.092 A 
ATOM     24  C   LIG    1       11.204 146.586  29.457  0.00  0.00    +0.147 A 
ATOM     25  O   LIG    1       10.179 147.430  29.800  0.00  0.00    -0.451 OA
ATOM     26  O   LIG    1       13.892 148.929  29.044  0.00  0.00    -0.283 OA
ATOM     27  C   LIG    1       10.437 148.791  29.868  0.00  0.00    +0.181 A 
BRANCH  27  28
ATOM     28  C   LIG    1        9.254 149.582  30.247  0.00  0.00    +0.025 A 
ATOM     29  C   LIG    1        9.159 150.127  31.527  0.00  0.00    +0.015 A 
ATOM     30  C   LIG    1        8.039 150.877  31.885  0.00  0.00    +0.050 A 
ATOM     31  C   LIG    1        7.012 151.080  30.964  0.00  0.00    +0.158 A 
ATOM     32  C   LIG    1        7.106 150.536  29.684  0.00  0.00    +0.159 A 
ATOM     37  C   LIG    1        8.227 149.787  29.325  0.00  0.00    +0.060 A 
BRANCH  32  33
ATOM     33  O   LIG    1        6.110 150.730  28.774  0.00  0.00    -0.503 OA
ATOM     34  H   LIG    1        5.395 151.248  29.178  0.00  0.00    +0.292 HD
ENDBRANCH  32  33
BRANCH  31  35
ATOM     35  O   LIG    1        5.922 151.813  31.326  0.00  0.00    -0.503 OA
ATOM     36  H   LIG    1        5.129 151.255  31.298  0.00  0.00    +0.292 HD
ENDBRANCH  31  35
ENDBRANCH  27  28
BRANCH  18  20
ATOM     20  O   LIG    1       11.627 142.986  28.977  0.00  0.00    -0.507 OA
ATOM     21  H   LIG    1       11.986 142.545  29.766  0.00  0.00    +0.292 HD
ENDBRANCH  18  20
BRANCH  16  22
ATOM     22  O   LIG    1       14.776 146.516  28.566  0.00  0.00    -0.506 OA
ATOM     23  H   LIG    1       15.072 147.156  29.235  0.00  0.00    +0.292 HD
ENDBRANCH  16  22
ENDBRANCH  12  13
ENDBRANCH   2  12
BRANCH  38  39
ATOM     39  C   LIG    1       12.917 151.551  34.258  0.00  0.00    +0.197 C 
BRANCH  39  40
ATOM     40  O   LIG    1       13.536 150.592  35.104  0.00  0.00    -0.346 OA
BRANCH  40  41
ATOM     41  C   LIG    1       12.650 149.520  35.410  0.00  0.00    +0.282 C 
ATOM     42  C   LIG    1       12.702 148.474  34.299  0.00  0.00    +0.201 C 
ATOM     43  C   LIG    1       14.038 147.728  34.314  0.00  0.00    +0.179 C 
ATOM     44  C   LIG    1       14.340 147.174  35.707  0.00  0.00    +0.174 C 
ATOM     45  C   LIG    1       14.215 148.287  36.755  0.00  0.00    +0.149 C 
ATOM     46  C   LIG    1       14.363 147.753  38.178  0.00  0.00    +0.041 C 
ATOM     53  O   LIG    1       12.935 148.924  36.680  0.00  0.00    -0.343 OA
BRANCH  44  47
ATOM     47  O   LIG    1       15.666 146.651  35.698  0.00  0.00    -0.387 OA
ATOM     48  H   LIG    1       16.231 147.279  35.218  0.00  0.00    +0.210 HD
ENDBRANCH  44  47
BRANCH  43  49
ATOM     49  O   LIG    1       14.004 146.652  33.378  0.00  0.00    -0.386 OA
ATOM     50  H   LIG    1       14.124 145.825  33.874  0.00  0.00    +0.210 HD
ENDBRANCH  43  49
BRANCH  42  51
ATOM     51  O   LIG    1       11.629 147.556  34.515  0.00  0.00    -0.384 OA
ATOM     52  H   LIG    1       11.836 146.727  34.049  0.00  0.00    +0.210 HD
ENDBRANCH  42  51
ENDBRANCH  40  41
ENDBRANCH  39  40
ENDBRANCH  38  39
TORSDOF 16
ENDMDL
MODEL 7
REMARK VINA RESULT:      -7.9      2.833      8.235
REMARK  Name = 5280805
REMARK                            x       y       z     vdW  Elec       q    Type
REMARK                         _______ _______ _______ _____ _____    ______ ____
ROOT
ATOM      1  O   LIG    1       12.597 149.667  31.833  0.00  0.00    -0.331 OA
ATOM      2  C   LIG    1       13.061 150.338  30.664  0.00  0.00    +0.340 C 
ATOM      3  C   LIG    1       13.225 149.351  29.508  0.00  0.00    +0.214 C 
ATOM      4  C   LIG    1       11.940 148.560  29.266  0.00  0.00    +0.180 C 
ATOM      5  C   LIG    1       11.387 147.988  30.571  0.00  0.00    +0.177 C 
ATOM     38  C   LIG    1       11.311 149.072  31.649  0.00  0.00    +0.179 C 
ENDROOT
BRANCH   5   6
ATOM      6  O   LIG    1       10.082 147.462  30.340  0.00  0.00    -0.386 OA
ATOM      7  H   LIG    1       10.020 147.214  29.402  0.00  0.00    +0.210 HD
ENDBRANCH   5   6
BRANCH   4   8
ATOM      8  O   LIG    1       12.212 147.467  28.386  0.00  0.00    -0.386 OA
ATOM      9  H   LIG    1       12.740 146.818  28.883  0.00  0.00    +0.210 HD
ENDBRANCH   4   8
BRANCH   3  10
ATOM     10  O   LIG    1       13.557 150.088  28.332  0.00  0.00    -0.383 OA
ATOM     11  H   LIG    1       14.022 149.491  27.723  0.00  0.00    +0.210 HD
ENDBRANCH   3  10
BRANCH   2  12
ATOM     12  O   LIG    1       14.333 150.930  30.921  0.00  0.00    -0.453 OA
BRANCH  12  13
ATOM     13  C   LIG    1       14.236 152.296  31.069  0.00  0.00    +0.214 A 
ATOM     14  C   LIG    1       14.240 153.132  29.844  0.00  0.00    +0.238 A 
ATOM     15  C   LIG    1       14.113 154.584  30.044  0.00  0.00    +0.109 A 
ATOM     16  C   LIG    1       14.108 155.458  28.953  0.00  0.00    +0.135 A 
ATOM     17  C   LIG    1       13.984 156.831  29.172  0.00  0.00    +0.091 A 
ATOM     18  C   LIG    1       13.865 157.326  30.471  0.00  0.00    +0.124 A 
ATOM     19  C   LIG    1       13.870 156.451  31.557  0.00  0.00    +0.092 A 
ATOM     24  C   LIG    1       13.994 155.078  31.341  0.00  0.00    +0.147 A 
ATOM     25  O   LIG    1       13.992 154.268  32.448  0.00  0.00    -0.451 OA
ATOM     26  O   LIG    1       14.342 152.641  28.728  0.00  0.00    -0.283 OA
ATOM     27  C   LIG    1       14.124 152.900  32.266  0.00  0.00    +0.181 A 
BRANCH  27  28
ATOM     28  C   LIG    1       14.105 152.148  33.533  0.00  0.00    +0.025 A 
ATOM     29  C   LIG    1       12.895 151.905  34.183  0.00  0.00    +0.015 A 
ATOM     30  C   LIG    1       12.877 151.193  35.382  0.00  0.00    +0.050 A 
ATOM     31  C   LIG    1       14.070 150.723  35.932  0.00  0.00    +0.158 A 
ATOM     32  C   LIG    1       15.280 150.965  35.283  0.00  0.00    +0.159 A 
ATOM     37  C   LIG    1       15.297 151.678  34.084  0.00  0.00    +0.060 A 
BRANCH  32  33
ATOM     33  O   LIG    1       16.451 150.511  35.810  0.00  0.00    -0.503 OA
ATOM     34  H   LIG    1       16.394 149.552  35.954  0.00  0.00    +0.292 HD
ENDBRANCH  32  33
BRANCH  31  35
ATOM     35  O   LIG    1       14.040 150.030  37.104  0.00  0.00    -0.503 OA
ATOM     36  H   LIG    1       13.332 149.368  37.075  0.00  0.00    +0.292 HD
ENDBRANCH  31  35
ENDBRANCH  27  28
BRANCH  18  20
ATOM     20  O   LIG    1       13.744 158.666  30.679  0.00  0.00    -0.507 OA
ATOM     21  H   LIG    1       14.558 158.995  31.097  0.00  0.00    +0.292 HD
ENDBRANCH  18  20
BRANCH  16  22
ATOM     22  O   LIG    1       14.220 155.027  27.666  0.00  0.00    -0.506 OA
ATOM     23  H   LIG    1       14.536 155.757  27.106  0.00  0.00    +0.292 HD
ENDBRANCH  16  22
ENDBRANCH  12  13
ENDBRANCH   2  12
BRANCH  38  39
ATOM     39  C   LIG    1       10.872 148.502  32.995  0.00  0.00    +0.197 C 
BRANCH  39  40
ATOM     40  O   LIG    1       12.024 148.250  33.787  0.00  0.00    -0.346 OA
BRANCH  40  41
ATOM     41  C   LIG    1       12.314 146.858  33.857  0.00  0.00    +0.282 C 
ATOM     42  C   LIG    1       13.825 146.650  33.949  0.00  0.00    +0.201 C 
ATOM     43  C   LIG    1       14.356 147.100  35.311  0.00  0.00    +0.179 C 
ATOM     44  C   LIG    1       13.566 146.450  36.448  0.00  0.00    +0.174 C 
ATOM     45  C   LIG    1       12.062 146.673  36.240  0.00  0.00    +0.149 C 
ATOM     46  C   LIG    1       11.224 145.919  37.269  0.00  0.00    +0.041 C 
ATOM     53  O   LIG    1       11.648 146.215  34.948  0.00  0.00    -0.343 OA
BRANCH  44  47
ATOM     47  O   LIG    1       13.987 147.042  37.675  0.00  0.00    -0.387 OA
ATOM     48  H   LIG    1       14.935 146.858  37.784  0.00  0.00    +0.210 HD
ENDBRANCH  44  47
BRANCH  43  49
ATOM     49  O   LIG    1       15.732 146.750  35.436  0.00  0.00    -0.386 OA
ATOM     50  H   LIG    1       15.789 145.780  35.474  0.00  0.00    +0.210 HD
ENDBRANCH  43  49
BRANCH  42  51
ATOM     51  O   LIG    1       14.085 145.258  33.760  0.00  0.00    -0.384 OA
ATOM     52  H   LIG    1       14.846 145.010  34.313  0.00  0.00    +0.210 HD
ENDBRANCH  42  51
ENDBRANCH  40  41
ENDBRANCH  39  40
ENDBRANCH  38  39
TORSDOF 16
ENDMDL
MODEL 8
REMARK VINA RESULT:      -7.9      3.338      8.420
REMARK  Name = 5280805
REMARK                            x       y       z     vdW  Elec       q    Type
REMARK                         _______ _______ _______ _____ _____    ______ ____
ROOT
ATOM      1  O   LIG    1       11.618 150.036  31.388  0.00  0.00    -0.331 OA
ATOM      2  C   LIG    1       12.706 150.101  30.469  0.00  0.00    +0.340 C 
ATOM      3  C   LIG    1       12.894 148.757  29.765  0.00  0.00    +0.214 C 
ATOM      4  C   LIG    1       11.595 148.287  29.110  0.00  0.00    +0.180 C 
ATOM      5  C   LIG    1       10.419 148.383  30.082  0.00  0.00    +0.177 C 
ATOM     38  C   LIG    1       10.372 149.763  30.743  0.00  0.00    +0.179 C 
ENDROOT
BRANCH   5   6
ATOM      6  O   LIG    1        9.203 148.159  29.374  0.00  0.00    -0.386 OA
ATOM      7  H   LIG    1        8.470 148.486  29.922  0.00  0.00    +0.210 HD
ENDBRANCH   5   6
BRANCH   4   8
ATOM      8  O   LIG    1       11.730 146.920  28.715  0.00  0.00    -0.386 OA
ATOM      9  H   LIG    1       11.022 146.731  28.076  0.00  0.00    +0.210 HD
ENDBRANCH   4   8
BRANCH   3  10
ATOM     10  O   LIG    1       13.899 148.913  28.764  0.00  0.00    -0.383 OA
ATOM     11  H   LIG    1       14.653 149.378  29.164  0.00  0.00    +0.210 HD
ENDBRANCH   3  10
BRANCH   2  12
ATOM     12  O   LIG    1       13.912 150.402  31.171  0.00  0.00    -0.453 OA
BRANCH  12  13
ATOM     13  C   LIG    1       14.138 151.759  31.232  0.00  0.00    +0.214 A 
ATOM     14  C   LIG    1       14.308 152.495  29.956  0.00  0.00    +0.238 A 
ATOM     15  C   LIG    1       14.526 153.946  30.064  0.00  0.00    +0.109 A 
ATOM     16  C   LIG    1       14.701 154.729  28.919  0.00  0.00    +0.135 A 
ATOM     17  C   LIG    1       14.903 156.104  29.051  0.00  0.00    +0.091 A 
ATOM     18  C   LIG    1       14.932 156.691  30.316  0.00  0.00    +0.124 A 
ATOM     19  C   LIG    1       14.757 155.906  31.456  0.00  0.00    +0.092 A 
ATOM     24  C   LIG    1       14.555 154.532  31.328  0.00  0.00    +0.147 A 
ATOM     25  O   LIG    1       14.388 153.813  32.484  0.00  0.00    -0.451 OA
ATOM     26  O   LIG    1       14.268 151.927  28.873  0.00  0.00    -0.283 OA
ATOM     27  C   LIG    1       14.195 152.444  32.390  0.00  0.00    +0.181 A 
BRANCH  27  28
ATOM     28  C   LIG    1       14.030 151.795  33.702  0.00  0.00    +0.025 A 
ATOM     29  C   LIG    1       12.771 151.740  34.300  0.00  0.00    +0.015 A 
ATOM     30  C   LIG    1       12.615 151.125  35.542  0.00  0.00    +0.050 A 
ATOM     31  C   LIG    1       13.719 150.566  36.188  0.00  0.00    +0.158 A 
ATOM     32  C   LIG    1       14.977 150.621  35.590  0.00  0.00    +0.159 A 
ATOM     37  C   LIG    1       15.133 151.235  34.348  0.00  0.00    +0.060 A 
BRANCH  32  33
ATOM     33  O   LIG    1       16.062 150.077  36.210  0.00  0.00    -0.503 OA
ATOM     34  H   LIG    1       15.797 149.275  36.688  0.00  0.00    +0.292 HD
ENDBRANCH  32  33
BRANCH  31  35
ATOM     35  O   LIG    1       13.554 149.970  37.401  0.00  0.00    -0.503 OA
ATOM     36  H   LIG    1       14.296 150.200  37.982  0.00  0.00    +0.292 HD
ENDBRANCH  31  35
ENDBRANCH  27  28
BRANCH  18  20
ATOM     20  O   LIG    1       15.130 158.032  30.439  0.00  0.00    -0.507 OA
ATOM     21  H   LIG    1       14.658 158.350  31.228  0.00  0.00    +0.292 HD
ENDBRANCH  18  20
BRANCH  16  22
ATOM     22  O   LIG    1       14.681 154.207  27.662  0.00  0.00    -0.506 OA
ATOM     23  H   LIG    1       13.811 153.807  27.490  0.00  0.00    +0.292 HD
ENDBRANCH  16  22
ENDBRANCH  12  13
ENDBRANCH   2  12
BRANCH  38  39
ATOM     39  C   LIG    1        9.278 149.845  31.803  0.00  0.00    +0.197 C 
BRANCH  39  40
ATOM     40  O   LIG    1        8.142 150.489  31.245  0.00  0.00    -0.346 OA
BRANCH  40  41
ATOM     41  C   LIG    1        8.287 151.906  31.257  0.00  0.00    +0.282 C 
ATOM     42  C   LIG    1        7.926 152.474  29.886  0.00  0.00    +0.201 C 
ATOM     43  C   LIG    1        6.422 152.364  29.629  0.00  0.00    +0.179 C 
ATOM     44  C   LIG    1        5.623 152.967  30.785  0.00  0.00    +0.174 C 
ATOM     45  C   LIG    1        6.092 152.370  32.119  0.00  0.00    +0.149 C 
ATOM     46  C   LIG    1        5.427 153.047  33.315  0.00  0.00    +0.041 C 
ATOM     53  O   LIG    1        7.506 152.525  32.283  0.00  0.00    -0.343 OA
BRANCH  44  47
ATOM     47  O   LIG    1        4.244 152.676  30.572  0.00  0.00    -0.387 OA
ATOM     48  H   LIG    1        3.770 152.857  31.401  0.00  0.00    +0.210 HD
ENDBRANCH  44  47
BRANCH  43  49
ATOM     49  O   LIG    1        6.084 153.042  28.421  0.00  0.00    -0.386 OA
ATOM     50  H   LIG    1        6.855 152.997  27.831  0.00  0.00    +0.210 HD
ENDBRANCH  43  49
BRANCH  42  51
ATOM     51  O   LIG    1        8.324 153.846  29.865  0.00  0.00    -0.384 OA
ATOM     52  H   LIG    1        7.584 154.375  29.520  0.00  0.00    +0.210 HD
ENDBRANCH  42  51
ENDBRANCH  40  41
ENDBRANCH  39  40
ENDBRANCH  38  39
TORSDOF 16
ENDMDL
MODEL 9
REMARK VINA RESULT:      -7.8     20.436     24.435
REMARK  Name = 5280805
REMARK                            x       y       z     vdW  Elec       q    Type
REMARK                         _______ _______ _______ _____ _____    ______ ____
ROOT
ATOM      1  O   LIG    1       13.815 165.100  16.562  0.00  0.00    -0.331 OA
ATOM      2  C   LIG    1       13.747 163.696  16.802  0.00  0.00    +0.340 C 
ATOM      3  C   LIG    1       14.289 163.361  18.191  0.00  0.00    +0.214 C 
ATOM      4  C   LIG    1       13.587 164.181  19.274  0.00  0.00    +0.180 C 
ATOM      5  C   LIG    1       13.540 165.663  18.904  0.00  0.00    +0.177 C 
ATOM     38  C   LIG    1       13.016 165.851  17.478  0.00  0.00    +0.179 C 
ENDROOT
BRANCH   5   6
ATOM      6  O   LIG    1       12.685 166.349  19.814  0.00  0.00    -0.386 OA
ATOM      7  H   LIG    1       11.846 166.532  19.359  0.00  0.00    +0.210 HD
ENDBRANCH   5   6
BRANCH   4   8
ATOM      8  O   LIG    1       14.302 164.055  20.505  0.00  0.00    -0.386 OA
ATOM      9  H   LIG    1       15.209 164.370  20.348  0.00  0.00    +0.210 HD
ENDBRANCH   4   8
BRANCH   3  10
ATOM     10  O   LIG    1       14.073 161.971  18.434  0.00  0.00    -0.383 OA
ATOM     11  H   LIG    1       13.219 161.726  18.039  0.00  0.00    +0.210 HD
ENDBRANCH   3  10
BRANCH   2  12
ATOM     12  O   LIG    1       14.543 163.004  15.840  0.00  0.00    -0.453 OA
BRANCH  12  13
ATOM     13  C   LIG    1       14.919 163.831  14.804  0.00  0.00    +0.214 A 
ATOM     14  C   LIG    1       13.962 164.031  13.690  0.00  0.00    +0.238 A 
ATOM     15  C   LIG    1       14.393 164.938  12.615  0.00  0.00    +0.109 A 
ATOM     16  C   LIG    1       13.563 165.191  11.518  0.00  0.00    +0.135 A 
ATOM     17  C   LIG    1       13.997 166.057  10.513  0.00  0.00    +0.091 A 
ATOM     18  C   LIG    1       15.249 166.665  10.603  0.00  0.00    +0.124 A 
ATOM     19  C   LIG    1       16.074 166.410  11.699  0.00  0.00    +0.092 A 
ATOM     24  C   LIG    1       15.644 165.545  12.705  0.00  0.00    +0.147 A 
ATOM     25  O   LIG    1       16.498 165.334  13.757  0.00  0.00    -0.451 OA
ATOM     26  O   LIG    1       12.873 163.474  13.667  0.00  0.00    -0.283 OA
ATOM     27  C   LIG    1       16.103 164.471  14.767  0.00  0.00    +0.181 A 
BRANCH  27  28
ATOM     28  C   LIG    1       17.110 164.335  15.834  0.00  0.00    +0.025 A 
ATOM     29  C   LIG    1       18.009 163.269  15.813  0.00  0.00    +0.015 A 
ATOM     30  C   LIG    1       18.963 163.141  16.822  0.00  0.00    +0.050 A 
ATOM     31  C   LIG    1       19.017 164.078  17.854  0.00  0.00    +0.158 A 
ATOM     32  C   LIG    1       18.118 165.143  17.876  0.00  0.00    +0.159 A 
ATOM     37  C   LIG    1       17.165 165.272  16.866  0.00  0.00    +0.060 A 
BRANCH  32  33
ATOM     33  O   LIG    1       18.162 166.066  18.878  0.00  0.00    -0.503 OA
ATOM     34  H   LIG    1       17.499 165.846  19.553  0.00  0.00    +0.292 HD
ENDBRANCH  32  33
BRANCH  31  35
ATOM     35  O   LIG    1       19.952 163.941  18.835  0.00  0.00    -0.503 OA
ATOM     36  H   LIG    1       19.691 164.462  19.611  0.00  0.00    +0.292 HD
ENDBRANCH  31  35
ENDBRANCH  27  28
BRANCH  18  20
ATOM     20  O   LIG    1       15.667 167.509   9.621  0.00  0.00    -0.507 OA
ATOM     21  H   LIG    1       15.304 167.208   8.770  0.00  0.00    +0.292 HD
ENDBRANCH  18  20
BRANCH  16  22
ATOM     22  O   LIG    1       12.332 164.624  11.382  0.00  0.00    -0.506 OA
ATOM     23  H   LIG    1       12.049 164.685  10.454  0.00  0.00    +0.292 HD
ENDBRANCH  16  22
ENDBRANCH  12  13
ENDBRANCH   2  12
BRANCH  38  39
ATOM     39  C   LIG    1       13.070 167.312  17.044  0.00  0.00    +0.197 C 
BRANCH  39  40
ATOM     40  O   LIG    1       11.808 167.681  16.507  0.00  0.00    -0.346 OA
BRANCH  40  41
ATOM     41  C   LIG    1       11.731 167.397  15.114  0.00  0.00    +0.282 C 
ATOM     42  C   LIG    1       10.740 166.259  14.873  0.00  0.00    +0.201 C 
ATOM     43  C   LIG    1        9.305 166.722  15.129  0.00  0.00    +0.179 C 
ATOM     44  C   LIG    1        8.994 167.997  14.345  0.00  0.00    +0.174 C 
ATOM     45  C   LIG    1       10.068 169.059  14.615  0.00  0.00    +0.149 C 
ATOM     46  C   LIG    1        9.881 170.297  13.742  0.00  0.00    +0.041 C 
ATOM     53  O   LIG    1       11.377 168.547  14.340  0.00  0.00    -0.343 OA
BRANCH  44  47
ATOM     47  O   LIG    1        7.715 168.472  14.760  0.00  0.00    -0.387 OA
ATOM     48  H   LIG    1        7.234 167.726  15.155  0.00  0.00    +0.210 HD
ENDBRANCH  44  47
BRANCH  43  49
ATOM     49  O   LIG    1        8.389 165.699  14.746  0.00  0.00    -0.386 OA
ATOM     50  H   LIG    1        7.489 166.058  14.834  0.00  0.00    +0.210 HD
ENDBRANCH  43  49
BRANCH  42  51
ATOM     51  O   LIG    1       10.882 165.838  13.515  0.00  0.00    -0.384 OA
ATOM     52  H   LIG    1       10.830 164.868  13.488  0.00  0.00    +0.210 HD
ENDBRANCH  42  51
ENDBRANCH  40  41
ENDBRANCH  39  40
ENDBRANCH  38  39
TORSDOF 16
ENDMDL
