MODEL 1
REMARK VINA RESULT:      -8.1      0.000      0.000
REMARK  Name = 5280637
REMARK                            x       y       z     vdW  Elec       q    Type
REMARK                         _______ _______ _______ _____ _____    ______ ____
ROOT
ATOM     13  C   LIG    1       13.325 164.714  16.151  0.00  0.00    +0.131 A 
ATOM     14  C   LIG    1       12.938 163.470  15.654  0.00  0.00    +0.092 A 
ATOM     15  C   LIG    1       12.986 163.216  14.283  0.00  0.00    +0.135 A 
ATOM     16  C   LIG    1       13.424 164.216  13.412  0.00  0.00    +0.105 A 
ATOM     17  C   LIG    1       13.484 163.979  11.962  0.00  0.00    +0.197 A 
ATOM     18  C   LIG    1       13.965 165.105  11.136  0.00  0.00    +0.098 A 
ATOM     19  C   LIG    1       14.315 166.256  11.732  0.00  0.00    +0.139 A 
ATOM     30  O   LIG    1       14.250 166.479  13.099  0.00  0.00    -0.454 OA
ATOM     31  O   LIG    1       13.157 162.913  11.460  0.00  0.00    -0.287 OA
ATOM     32  C   LIG    1       13.812 165.460  13.907  0.00  0.00    +0.146 A 
ATOM     35  C   LIG    1       13.762 165.712  15.278  0.00  0.00    +0.093 A 
ENDROOT
BRANCH  19  20
ATOM     20  C   LIG    1       14.794 167.418  10.956  0.00  0.00    +0.021 A 
ATOM     21  C   LIG    1       14.051 168.600  10.934  0.00  0.00    +0.015 A 
ATOM     22  C   LIG    1       14.502 169.697  10.201  0.00  0.00    +0.050 A 
ATOM     23  C   LIG    1       15.699 169.616   9.488  0.00  0.00    +0.158 A 
ATOM     24  C   LIG    1       16.443 168.436   9.508  0.00  0.00    +0.159 A 
ATOM     29  C   LIG    1       15.991 167.339  10.242  0.00  0.00    +0.060 A 
BRANCH  24  25
ATOM     25  O   LIG    1       17.614 168.346   8.818  0.00  0.00    -0.503 OA
ATOM     26  H   LIG    1       17.453 167.833   8.007  0.00  0.00    +0.292 HD
ENDBRANCH  24  25
BRANCH  23  27
ATOM     27  O   LIG    1       16.129 170.694   8.775  0.00  0.00    -0.503 OA
ATOM     28  H   LIG    1       16.076 170.487   7.826  0.00  0.00    +0.292 HD
ENDBRANCH  23  27
ENDBRANCH  19  20
BRANCH  15  33
ATOM     33  O   LIG    1       12.597 161.985  13.848  0.00  0.00    -0.506 OA
ATOM     34  H   LIG    1       12.362 161.418  14.598  0.00  0.00    +0.292 HD
ENDBRANCH  15  33
BRANCH  13  12
ATOM     12  O   LIG    1       13.276 164.958  17.492  0.00  0.00    -0.461 OA
BRANCH  12   2
ATOM      1  O   LIG    1       15.597 164.720  17.488  0.00  0.00    -0.331 OA
ATOM      2  C   LIG    1       14.409 164.549  18.257  0.00  0.00    +0.339 C 
ATOM      3  C   LIG    1       14.218 163.079  18.629  0.00  0.00    +0.214 C 
ATOM      4  C   LIG    1       15.459 162.516  19.324  0.00  0.00    +0.180 C 
ATOM      5  C   LIG    1       16.731 162.860  18.549  0.00  0.00    +0.177 C 
ATOM     36  C   LIG    1       16.774 164.351  18.209  0.00  0.00    +0.179 C 
BRANCH   5   6
ATOM      6  O   LIG    1       17.870 162.523  19.338  0.00  0.00    -0.386 OA
ATOM      7  H   LIG    1       18.163 161.633  19.077  0.00  0.00    +0.210 HD
ENDBRANCH   5   6
BRANCH   4   8
ATOM      8  O   LIG    1       15.357 161.093  19.400  0.00  0.00    -0.386 OA
ATOM      9  H   LIG    1       15.201 160.764  18.497  0.00  0.00    +0.210 HD
ENDBRANCH   4   8
BRANCH   3  10
ATOM     10  O   LIG    1       13.098 162.980  19.509  0.00  0.00    -0.383 OA
ATOM     11  H   LIG    1       13.224 163.621  20.229  0.00  0.00    +0.210 HD
ENDBRANCH   3  10
BRANCH  36  37
ATOM     37  C   LIG    1       17.976 164.696  17.334  0.00  0.00    +0.190 C 
BRANCH  37  38
ATOM     38  O   LIG    1       19.130 164.739  18.152  0.00  0.00    -0.392 OA
ATOM     39  H   LIG    1       19.511 163.844  18.173  0.00  0.00    +0.210 HD
ENDBRANCH  37  38
ENDBRANCH  36  37
ENDBRANCH  12   2
ENDBRANCH  13  12
TORSDOF 11
ENDMDL
MODEL 2
REMARK VINA RESULT:      -8.1     13.324     18.292
REMARK  Name = 5280637
REMARK                            x       y       z     vdW  Elec       q    Type
REMARK                         _______ _______ _______ _____ _____    ______ ____
ROOT
ATOM     13  C   LIG    1       21.391 160.382  25.871  0.00  0.00    +0.131 A 
ATOM     14  C   LIG    1       21.115 159.493  24.833  0.00  0.00    +0.092 A 
ATOM     15  C   LIG    1       21.232 158.117  25.038  0.00  0.00    +0.135 A 
ATOM     16  C   LIG    1       21.625 157.638  26.290  0.00  0.00    +0.105 A 
ATOM     17  C   LIG    1       21.758 156.195  26.536  0.00  0.00    +0.197 A 
ATOM     18  C   LIG    1       22.179 155.801  27.896  0.00  0.00    +0.098 A 
ATOM     19  C   LIG    1       22.409 156.752  28.815  0.00  0.00    +0.139 A 
ATOM     30  O   LIG    1       22.291 158.113  28.577  0.00  0.00    -0.454 OA
ATOM     31  O   LIG    1       21.536 155.361  25.670  0.00  0.00    -0.287 OA
ATOM     32  C   LIG    1       21.900 158.527  27.329  0.00  0.00    +0.146 A 
ATOM     35  C   LIG    1       21.784 159.901  27.121  0.00  0.00    +0.093 A 
ENDROOT
BRANCH  19  20
ATOM     20  C   LIG    1       22.841 156.418  30.188  0.00  0.00    +0.021 A 
ATOM     21  C   LIG    1       24.069 156.876  30.668  0.00  0.00    +0.015 A 
ATOM     22  C   LIG    1       24.476 156.560  31.964  0.00  0.00    +0.050 A 
ATOM     23  C   LIG    1       23.656 155.785  32.783  0.00  0.00    +0.158 A 
ATOM     24  C   LIG    1       22.428 155.325  32.306  0.00  0.00    +0.159 A 
ATOM     29  C   LIG    1       22.021 155.641  31.010  0.00  0.00    +0.060 A 
BRANCH  24  25
ATOM     25  O   LIG    1       21.618 154.568  33.099  0.00  0.00    -0.503 OA
ATOM     26  H   LIG    1       20.718 154.597  32.732  0.00  0.00    +0.292 HD
ENDBRANCH  24  25
BRANCH  23  27
ATOM     27  O   LIG    1       24.065 155.482  34.047  0.00  0.00    -0.503 OA
ATOM     28  H   LIG    1       24.057 154.515  34.159  0.00  0.00    +0.292 HD
ENDBRANCH  23  27
ENDBRANCH  19  20
BRANCH  15  33
ATOM     33  O   LIG    1       20.952 157.291  23.992  0.00  0.00    -0.506 OA
ATOM     34  H   LIG    1       20.063 157.464  23.649  0.00  0.00    +0.292 HD
ENDBRANCH  15  33
BRANCH  13  12
ATOM     12  O   LIG    1       21.276 161.726  25.665  0.00  0.00    -0.461 OA
BRANCH  12   2
ATOM      1  O   LIG    1       22.430 163.414  26.788  0.00  0.00    -0.331 OA
ATOM      2  C   LIG    1       22.484 162.484  25.710  0.00  0.00    +0.339 C 
ATOM      3  C   LIG    1       22.628 163.217  24.376  0.00  0.00    +0.214 C 
ATOM      4  C   LIG    1       23.821 164.173  24.393  0.00  0.00    +0.180 C 
ATOM      5  C   LIG    1       23.814 165.045  25.649  0.00  0.00    +0.177 C 
ATOM     36  C   LIG    1       23.625 164.189  26.903  0.00  0.00    +0.179 C 
BRANCH   5   6
ATOM      6  O   LIG    1       25.050 165.750  25.741  0.00  0.00    -0.386 OA
ATOM      7  H   LIG    1       24.857 166.656  26.036  0.00  0.00    +0.210 HD
ENDBRANCH   5   6
BRANCH   4   8
ATOM      8  O   LIG    1       23.756 165.035  23.255  0.00  0.00    -0.386 OA
ATOM      9  H   LIG    1       23.747 164.470  22.463  0.00  0.00    +0.210 HD
ENDBRANCH   4   8
BRANCH   3  10
ATOM     10  O   LIG    1       22.814 162.245  23.348  0.00  0.00    -0.383 OA
ATOM     11  H   LIG    1       22.045 162.283  22.754  0.00  0.00    +0.210 HD
ENDBRANCH   3  10
BRANCH  36  37
ATOM     37  C   LIG    1       23.497 165.048  28.158  0.00  0.00    +0.190 C 
BRANCH  37  38
ATOM     38  O   LIG    1       24.797 165.335  28.641  0.00  0.00    -0.392 OA
ATOM     39  H   LIG    1       25.289 164.497  28.682  0.00  0.00    +0.210 HD
ENDBRANCH  37  38
ENDBRANCH  36  37
ENDBRANCH  12   2
ENDBRANCH  13  12
TORSDOF 11
ENDMDL
MODEL 3
REMARK VINA RESULT:      -7.9      5.356     10.840
REMARK  Name = 5280637
REMARK                            x       y       z     vdW  Elec       q    Type
REMARK                         _______ _______ _______ _____ _____    ______ ____
ROOT
ATOM     13  C   LIG    1       18.772 165.576  18.205  0.00  0.00    +0.131 A 
ATOM     14  C   LIG    1       18.263 166.872  18.135  0.00  0.00    +0.092 A 
ATOM     15  C   LIG    1       18.805 167.883  18.929  0.00  0.00    +0.135 A 
ATOM     16  C   LIG    1       19.861 167.588  19.795  0.00  0.00    +0.105 A 
ATOM     17  C   LIG    1       20.452 168.632  20.645  0.00  0.00    +0.197 A 
ATOM     18  C   LIG    1       21.564 168.208  21.520  0.00  0.00    +0.098 A 
ATOM     19  C   LIG    1       21.971 166.929  21.494  0.00  0.00    +0.139 A 
ATOM     30  O   LIG    1       21.406 165.945  20.697  0.00  0.00    -0.454 OA
ATOM     31  O   LIG    1       20.052 169.787  20.636  0.00  0.00    -0.287 OA
ATOM     32  C   LIG    1       20.371 166.292  19.865  0.00  0.00    +0.146 A 
ATOM     35  C   LIG    1       19.827 165.284  19.071  0.00  0.00    +0.093 A 
ENDROOT
BRANCH  19  20
ATOM     20  C   LIG    1       23.072 166.446  22.353  0.00  0.00    +0.021 A 
ATOM     21  C   LIG    1       23.459 165.105  22.309  0.00  0.00    +0.015 A 
ATOM     22  C   LIG    1       24.497 164.649  23.121  0.00  0.00    +0.050 A 
ATOM     23  C   LIG    1       25.152 165.533  23.979  0.00  0.00    +0.158 A 
ATOM     24  C   LIG    1       24.767 166.873  24.025  0.00  0.00    +0.159 A 
ATOM     29  C   LIG    1       23.729 167.329  23.213  0.00  0.00    +0.060 A 
BRANCH  24  25
ATOM     25  O   LIG    1       25.401 167.746  24.858  0.00  0.00    -0.503 OA
ATOM     26  H   LIG    1       25.667 168.525  24.340  0.00  0.00    +0.292 HD
ENDBRANCH  24  25
BRANCH  23  27
ATOM     27  O   LIG    1       26.164 165.075  24.767  0.00  0.00    -0.503 OA
ATOM     28  H   LIG    1       26.793 164.577  24.218  0.00  0.00    +0.292 HD
ENDBRANCH  23  27
ENDBRANCH  19  20
BRANCH  15  33
ATOM     33  O   LIG    1       18.272 169.132  18.824  0.00  0.00    -0.506 OA
ATOM     34  H   LIG    1       18.781 169.668  18.197  0.00  0.00    +0.292 HD
ENDBRANCH  15  33
BRANCH  13  12
ATOM     12  O   LIG    1       18.238 164.591  17.427  0.00  0.00    -0.461 OA
BRANCH  12   2
ATOM      1  O   LIG    1       16.068 164.030  18.074  0.00  0.00    -0.331 OA
ATOM      2  C   LIG    1       16.854 164.714  17.102  0.00  0.00    +0.339 C 
ATOM      3  C   LIG    1       16.641 164.106  15.716  0.00  0.00    +0.214 C 
ATOM      4  C   LIG    1       15.157 164.061  15.351  0.00  0.00    +0.180 C 
ATOM      5  C   LIG    1       14.325 163.465  16.487  0.00  0.00    +0.177 C 
ATOM     36  C   LIG    1       14.666 164.137  17.819  0.00  0.00    +0.179 C 
BRANCH   5   6
ATOM      6  O   LIG    1       12.941 163.651  16.206  0.00  0.00    -0.386 OA
ATOM      7  H   LIG    1       12.806 163.507  15.253  0.00  0.00    +0.210 HD
ENDBRANCH   5   6
BRANCH   4   8
ATOM      8  O   LIG    1       14.976 163.242  14.194  0.00  0.00    -0.386 OA
ATOM      9  H   LIG    1       15.632 163.525  13.533  0.00  0.00    +0.210 HD
ENDBRANCH   4   8
BRANCH   3  10
ATOM     10  O   LIG    1       17.338 164.908  14.763  0.00  0.00    -0.383 OA
ATOM     11  H   LIG    1       17.473 164.374  13.961  0.00  0.00    +0.210 HD
ENDBRANCH   3  10
BRANCH  36  37
ATOM     37  C   LIG    1       13.935 163.480  18.986  0.00  0.00    +0.190 C 
BRANCH  37  38
ATOM     38  O   LIG    1       13.510 162.191  18.582  0.00  0.00    -0.392 OA
ATOM     39  H   LIG    1       14.111 161.888  17.880  0.00  0.00    +0.210 HD
ENDBRANCH  37  38
ENDBRANCH  36  37
ENDBRANCH  12   2
ENDBRANCH  13  12
TORSDOF 11
ENDMDL
MODEL 4
REMARK VINA RESULT:      -7.8      2.350      9.568
REMARK  Name = 5280637
REMARK                            x       y       z     vdW  Elec       q    Type
REMARK                         _______ _______ _______ _____ _____    ______ ____
ROOT
ATOM     13  C   LIG    1       15.854 166.037  11.286  0.00  0.00    +0.131 A 
ATOM     14  C   LIG    1       14.470 165.981  11.119  0.00  0.00    +0.092 A 
ATOM     15  C   LIG    1       13.657 165.511  12.151  0.00  0.00    +0.135 A 
ATOM     16  C   LIG    1       14.239 165.097  13.352  0.00  0.00    +0.105 A 
ATOM     17  C   LIG    1       13.409 164.596  14.458  0.00  0.00    +0.197 A 
ATOM     18  C   LIG    1       14.129 164.187  15.681  0.00  0.00    +0.098 A 
ATOM     19  C   LIG    1       15.467 164.294  15.724  0.00  0.00    +0.139 A 
ATOM     30  O   LIG    1       16.247 164.760  14.677  0.00  0.00    -0.454 OA
ATOM     31  O   LIG    1       12.191 164.517  14.377  0.00  0.00    -0.287 OA
ATOM     32  C   LIG    1       15.622 165.153  13.520  0.00  0.00    +0.146 A 
ATOM     35  C   LIG    1       16.432 165.623  12.487  0.00  0.00    +0.093 A 
ENDROOT
BRANCH  19  20
ATOM     20  C   LIG    1       16.240 163.893  16.917  0.00  0.00    +0.021 A 
ATOM     21  C   LIG    1       17.612 164.146  16.980  0.00  0.00    +0.015 A 
ATOM     22  C   LIG    1       18.343 163.767  18.106  0.00  0.00    +0.050 A 
ATOM     23  C   LIG    1       17.703 163.133  19.172  0.00  0.00    +0.158 A 
ATOM     24  C   LIG    1       16.333 162.878  19.110  0.00  0.00    +0.159 A 
ATOM     29  C   LIG    1       15.602 163.258  17.985  0.00  0.00    +0.060 A 
BRANCH  24  25
ATOM     25  O   LIG    1       15.698 162.262  20.147  0.00  0.00    -0.503 OA
ATOM     26  H   LIG    1       16.123 161.400  20.297  0.00  0.00    +0.292 HD
ENDBRANCH  24  25
BRANCH  23  27
ATOM     27  O   LIG    1       18.428 162.766  20.265  0.00  0.00    -0.503 OA
ATOM     28  H   LIG    1       19.077 162.091  20.003  0.00  0.00    +0.292 HD
ENDBRANCH  23  27
ENDBRANCH  19  20
BRANCH  15  33
ATOM     33  O   LIG    1       12.312 165.476  11.938  0.00  0.00    -0.506 OA
ATOM     34  H   LIG    1       12.026 166.253  11.436  0.00  0.00    +0.292 HD
ENDBRANCH  15  33
BRANCH  13  12
ATOM     12  O   LIG    1       16.644 166.497  10.273  0.00  0.00    -0.461 OA
BRANCH  12   2
ATOM      1  O   LIG    1       15.889 165.972   8.129  0.00  0.00    -0.331 OA
ATOM      2  C   LIG    1       15.973 166.996   9.117  0.00  0.00    +0.339 C 
ATOM      3  C   LIG    1       16.772 168.187   8.588  0.00  0.00    +0.214 C 
ATOM      4  C   LIG    1       16.206 168.691   7.260  0.00  0.00    +0.180 C 
ATOM      5  C   LIG    1       15.979 167.539   6.282  0.00  0.00    +0.177 C 
ATOM     36  C   LIG    1       15.203 166.402   6.951  0.00  0.00    +0.179 C 
BRANCH   5   6
ATOM      6  O   LIG    1       15.243 168.013   5.157  0.00  0.00    -0.386 OA
ATOM      7  H   LIG    1       15.119 167.268   4.544  0.00  0.00    +0.210 HD
ENDBRANCH   5   6
BRANCH   4   8
ATOM      8  O   LIG    1       17.130 169.603   6.664  0.00  0.00    -0.386 OA
ATOM      9  H   LIG    1       17.008 169.552   5.700  0.00  0.00    +0.210 HD
ENDBRANCH   4   8
BRANCH   3  10
ATOM     10  O   LIG    1       16.711 169.234   9.557  0.00  0.00    -0.383 OA
ATOM     11  H   LIG    1       15.795 169.294   9.878  0.00  0.00    +0.210 HD
ENDBRANCH   3  10
BRANCH  36  37
ATOM     37  C   LIG    1       15.067 165.193   6.031  0.00  0.00    +0.190 C 
BRANCH  37  38
ATOM     38  O   LIG    1       16.212 165.128   5.201  0.00  0.00    -0.392 OA
ATOM     39  H   LIG    1       16.808 165.851   5.462  0.00  0.00    +0.210 HD
ENDBRANCH  37  38
ENDBRANCH  36  37
ENDBRANCH  12   2
ENDBRANCH  13  12
TORSDOF 11
ENDMDL
MODEL 5
REMARK VINA RESULT:      -7.8     21.275     24.091
REMARK  Name = 5280637
REMARK                            x       y       z     vdW  Elec       q    Type
REMARK                         _______ _______ _______ _____ _____    ______ ____
ROOT
ATOM     13  C   LIG    1       12.451 147.105  30.696  0.00  0.00    +0.131 A 
ATOM     14  C   LIG    1       12.075 146.044  29.873  0.00  0.00    +0.092 A 
ATOM     15  C   LIG    1       10.917 146.133  29.098  0.00  0.00    +0.135 A 
ATOM     16  C   LIG    1       10.140 147.292  29.152  0.00  0.00    +0.105 A 
ATOM     17  C   LIG    1        8.914 147.415  28.349  0.00  0.00    +0.197 A 
ATOM     18  C   LIG    1        8.171 148.684  28.482  0.00  0.00    +0.098 A 
ATOM     19  C   LIG    1        8.638 149.637  29.305  0.00  0.00    +0.139 A 
ATOM     30  O   LIG    1        9.789 149.515  30.067  0.00  0.00    -0.454 OA
ATOM     31  O   LIG    1        8.525 146.521  27.609  0.00  0.00    -0.287 OA
ATOM     32  C   LIG    1       10.515 148.354  29.974  0.00  0.00    +0.146 A 
ATOM     35  C   LIG    1       11.671 148.262  30.748  0.00  0.00    +0.093 A 
ENDROOT
BRANCH  19  20
ATOM     20  C   LIG    1        7.932 150.922  29.485  0.00  0.00    +0.021 A 
ATOM     21  C   LIG    1        8.658 152.096  29.695  0.00  0.00    +0.015 A 
ATOM     22  C   LIG    1        7.991 153.310  29.867  0.00  0.00    +0.050 A 
ATOM     23  C   LIG    1        6.597 153.352  29.828  0.00  0.00    +0.158 A 
ATOM     24  C   LIG    1        5.870 152.180  29.619  0.00  0.00    +0.159 A 
ATOM     29  C   LIG    1        6.537 150.966  29.447  0.00  0.00    +0.060 A 
BRANCH  24  25
ATOM     25  O   LIG    1        4.509 152.210  29.577  0.00  0.00    -0.503 OA
ATOM     26  H   LIG    1        4.215 151.708  28.798  0.00  0.00    +0.292 HD
ENDBRANCH  24  25
BRANCH  23  27
ATOM     27  O   LIG    1        5.958 154.542  29.998  0.00  0.00    -0.503 OA
ATOM     28  H   LIG    1        5.741 154.913  29.125  0.00  0.00    +0.292 HD
ENDBRANCH  23  27
ENDBRANCH  19  20
BRANCH  15  33
ATOM     33  O   LIG    1       10.593 145.069  28.312  0.00  0.00    -0.506 OA
ATOM     34  H   LIG    1       10.015 144.456  28.790  0.00  0.00    +0.292 HD
ENDBRANCH  15  33
BRANCH  13  12
ATOM     12  O   LIG    1       13.582 147.013  31.452  0.00  0.00    -0.461 OA
BRANCH  12   2
ATOM      1  O   LIG    1       14.401 148.670  32.876  0.00  0.00    -0.331 OA
ATOM      2  C   LIG    1       13.516 147.558  32.769  0.00  0.00    +0.339 C 
ATOM      3  C   LIG    1       13.916 146.458  33.753  0.00  0.00    +0.214 C 
ATOM      4  C   LIG    1       14.018 146.999  35.180  0.00  0.00    +0.180 C 
ATOM      5  C   LIG    1       14.844 148.284  35.227  0.00  0.00    +0.177 C 
ATOM     36  C   LIG    1       14.363 149.279  34.168  0.00  0.00    +0.179 C 
BRANCH   5   6
ATOM      6  O   LIG    1       14.723 148.876  36.518  0.00  0.00    -0.386 OA
ATOM      7  H   LIG    1       14.557 149.826  36.399  0.00  0.00    +0.210 HD
ENDBRANCH   5   6
BRANCH   4   8
ATOM      8  O   LIG    1       14.659 146.030  36.011  0.00  0.00    -0.386 OA
ATOM      9  H   LIG    1       15.491 145.777  35.575  0.00  0.00    +0.210 HD
ENDBRANCH   4   8
BRANCH   3  10
ATOM     10  O   LIG    1       12.926 145.432  33.706  0.00  0.00    -0.383 OA
ATOM     11  H   LIG    1       12.534 145.432  32.816  0.00  0.00    +0.210 HD
ENDBRANCH   3  10
BRANCH  36  37
ATOM     37  C   LIG    1       15.247 150.521  34.117  0.00  0.00    +0.190 C 
BRANCH  37  38
ATOM     38  O   LIG    1       16.463 150.236  34.783  0.00  0.00    -0.392 OA
ATOM     39  H   LIG    1       16.478 150.753  35.607  0.00  0.00    +0.210 HD
ENDBRANCH  37  38
ENDBRANCH  36  37
ENDBRANCH  12   2
ENDBRANCH  13  12
TORSDOF 11
ENDMDL
MODEL 6
REMARK VINA RESULT:      -7.7      2.183      3.572
REMARK  Name = 5280637
REMARK                            x       y       z     vdW  Elec       q    Type
REMARK                         _______ _______ _______ _____ _____    ______ ____
ROOT
ATOM     13  C   LIG    1       15.026 165.015  17.063  0.00  0.00    +0.131 A 
ATOM     14  C   LIG    1       14.207 163.928  17.368  0.00  0.00    +0.092 A 
ATOM     15  C   LIG    1       13.596 163.201  16.346  0.00  0.00    +0.135 A 
ATOM     16  C   LIG    1       13.810 163.570  15.015  0.00  0.00    +0.105 A 
ATOM     17  C   LIG    1       13.179 162.824  13.916  0.00  0.00    +0.197 A 
ATOM     18  C   LIG    1       13.476 163.300  12.550  0.00  0.00    +0.098 A 
ATOM     19  C   LIG    1       14.286 164.357  12.383  0.00  0.00    +0.139 A 
ATOM     30  O   LIG    1       14.874 165.063  13.421  0.00  0.00    -0.454 OA
ATOM     31  O   LIG    1       12.448 161.864  14.113  0.00  0.00    -0.287 OA
ATOM     32  C   LIG    1       14.629 164.656  14.709  0.00  0.00    +0.146 A 
ATOM     35  C   LIG    1       15.238 165.381  15.732  0.00  0.00    +0.093 A 
ENDROOT
BRANCH  19  20
ATOM     20  C   LIG    1       14.612 164.882  11.041  0.00  0.00    +0.021 A 
ATOM     21  C   LIG    1       13.780 164.598   9.956  0.00  0.00    +0.015 A 
ATOM     22  C   LIG    1       14.088 165.093   8.689  0.00  0.00    +0.050 A 
ATOM     23  C   LIG    1       15.228 165.875   8.504  0.00  0.00    +0.158 A 
ATOM     24  C   LIG    1       16.062 166.159   9.586  0.00  0.00    +0.159 A 
ATOM     29  C   LIG    1       15.754 165.664  10.853  0.00  0.00    +0.060 A 
BRANCH  24  25
ATOM     25  O   LIG    1       17.177 166.923   9.416  0.00  0.00    -0.503 OA
ATOM     26  H   LIG    1       17.021 167.532   8.674  0.00  0.00    +0.292 HD
ENDBRANCH  24  25
BRANCH  23  27
ATOM     27  O   LIG    1       15.519 166.351   7.261  0.00  0.00    -0.503 OA
ATOM     28  H   LIG    1       16.477 166.504   7.196  0.00  0.00    +0.292 HD
ENDBRANCH  23  27
ENDBRANCH  19  20
BRANCH  15  33
ATOM     33  O   LIG    1       12.806 162.149  16.696  0.00  0.00    -0.506 OA
ATOM     34  H   LIG    1       12.735 161.517  15.965  0.00  0.00    +0.292 HD
ENDBRANCH  15  33
BRANCH  13  12
ATOM     12  O   LIG    1       15.621 165.723  18.066  0.00  0.00    -0.461 OA
BRANCH  12   2
ATOM      1  O   LIG    1       17.747 164.834  18.425  0.00  0.00    -0.331 OA
ATOM      2  C   LIG    1       17.022 165.959  17.937  0.00  0.00    +0.339 C 
ATOM      3  C   LIG    1       17.364 167.211  18.746  0.00  0.00    +0.214 C 
ATOM      4  C   LIG    1       18.874 167.452  18.785  0.00  0.00    +0.180 C 
ATOM      5  C   LIG    1       19.628 166.176  19.158  0.00  0.00    +0.177 C 
ATOM     36  C   LIG    1       19.161 164.998  18.300  0.00  0.00    +0.179 C 
BRANCH   5   6
ATOM      6  O   LIG    1       21.025 166.379  18.960  0.00  0.00    -0.386 OA
ATOM      7  H   LIG    1       21.500 165.671  19.427  0.00  0.00    +0.210 HD
ENDBRANCH   5   6
BRANCH   4   8
ATOM      8  O   LIG    1       19.171 168.445  19.768  0.00  0.00    -0.386 OA
ATOM      9  H   LIG    1       19.847 168.075  20.360  0.00  0.00    +0.210 HD
ENDBRANCH   4   8
BRANCH   3  10
ATOM     10  O   LIG    1       16.722 168.329  18.135  0.00  0.00    -0.383 OA
ATOM     11  H   LIG    1       16.489 168.962  18.835  0.00  0.00    +0.210 HD
ENDBRANCH   3  10
BRANCH  36  37
ATOM     37  C   LIG    1       19.816 163.690  18.734  0.00  0.00    +0.190 C 
BRANCH  37  38
ATOM     38  O   LIG    1       18.826 162.678  18.762  0.00  0.00    -0.392 OA
ATOM     39  H   LIG    1       19.012 162.103  19.524  0.00  0.00    +0.210 HD
ENDBRANCH  37  38
ENDBRANCH  36  37
ENDBRANCH  12   2
ENDBRANCH  13  12
TORSDOF 11
ENDMDL
MODEL 7
REMARK VINA RESULT:      -7.7     12.724     19.087
REMARK  Name = 5280637
REMARK                            x       y       z     vdW  Elec       q    Type
REMARK                         _______ _______ _______ _____ _____    ______ ____
ROOT
ATOM     13  C   LIG    1       21.869 160.376  27.429  0.00  0.00    +0.131 A 
ATOM     14  C   LIG    1       21.387 159.508  26.449  0.00  0.00    +0.092 A 
ATOM     15  C   LIG    1       21.475 158.128  26.630  0.00  0.00    +0.135 A 
ATOM     16  C   LIG    1       22.047 157.621  27.799  0.00  0.00    +0.105 A 
ATOM     17  C   LIG    1       22.154 156.171  28.018  0.00  0.00    +0.197 A 
ATOM     18  C   LIG    1       22.776 155.747  29.289  0.00  0.00    +0.098 A 
ATOM     19  C   LIG    1       23.196 156.679  30.159  0.00  0.00    +0.139 A 
ATOM     30  O   LIG    1       23.101 158.046  29.946  0.00  0.00    -0.454 OA
ATOM     31  O   LIG    1       21.756 155.355  27.199  0.00  0.00    -0.287 OA
ATOM     32  C   LIG    1       22.529 158.487  28.780  0.00  0.00    +0.146 A 
ATOM     35  C   LIG    1       22.441 159.867  28.596  0.00  0.00    +0.093 A 
ENDROOT
BRANCH  19  20
ATOM     20  C   LIG    1       23.832 156.314  31.442  0.00  0.00    +0.021 A 
ATOM     21  C   LIG    1       23.059 155.810  32.489  0.00  0.00    +0.015 A 
ATOM     22  C   LIG    1       23.659 155.467  33.700  0.00  0.00    +0.050 A 
ATOM     23  C   LIG    1       25.035 155.627  33.867  0.00  0.00    +0.158 A 
ATOM     24  C   LIG    1       25.810 156.132  32.823  0.00  0.00    +0.159 A 
ATOM     29  C   LIG    1       25.209 156.475  31.611  0.00  0.00    +0.060 A 
BRANCH  24  25
ATOM     25  O   LIG    1       27.155 156.290  32.974  0.00  0.00    -0.503 OA
ATOM     26  H   LIG    1       27.594 155.473  32.684  0.00  0.00    +0.292 HD
ENDBRANCH  24  25
BRANCH  23  27
ATOM     27  O   LIG    1       25.609 155.289  35.055  0.00  0.00    -0.503 OA
ATOM     28  H   LIG    1       25.450 156.002  35.698  0.00  0.00    +0.292 HD
ENDBRANCH  23  27
ENDBRANCH  19  20
BRANCH  15  33
ATOM     33  O   LIG    1       20.990 157.323  25.643  0.00  0.00    -0.506 OA
ATOM     34  H   LIG    1       21.256 156.403  25.792  0.00  0.00    +0.292 HD
ENDBRANCH  15  33
BRANCH  13  12
ATOM     12  O   LIG    1       21.782 161.725  27.247  0.00  0.00    -0.461 OA
BRANCH  12   2
ATOM      1  O   LIG    1       23.551 163.062  26.521  0.00  0.00    -0.331 OA
ATOM      2  C   LIG    1       22.450 162.259  26.104  0.00  0.00    +0.339 C 
ATOM      3  C   LIG    1       21.440 163.098  25.320  0.00  0.00    +0.214 C 
ATOM      4  C   LIG    1       22.111 163.832  24.158  0.00  0.00    +0.180 C 
ATOM      5  C   LIG    1       23.380 164.551  24.615  0.00  0.00    +0.177 C 
ATOM     36  C   LIG    1       24.279 163.608  25.419  0.00  0.00    +0.179 C 
BRANCH   5   6
ATOM      6  O   LIG    1       24.092 165.023  23.474  0.00  0.00    -0.386 OA
ATOM      7  H   LIG    1       24.298 165.962  23.617  0.00  0.00    +0.210 HD
ENDBRANCH   5   6
BRANCH   4   8
ATOM      8  O   LIG    1       21.212 164.810  23.632  0.00  0.00    -0.386 OA
ATOM      9  H   LIG    1       20.363 164.366  23.468  0.00  0.00    +0.210 HD
ENDBRANCH   4   8
BRANCH   3  10
ATOM     10  O   LIG    1       20.432 162.226  24.811  0.00  0.00    -0.383 OA
ATOM     11  H   LIG    1       20.862 161.574  24.231  0.00  0.00    +0.210 HD
ENDBRANCH   3  10
BRANCH  36  37
ATOM     37  C   LIG    1       25.495 164.335  25.985  0.00  0.00    +0.190 C 
BRANCH  37  38
ATOM     38  O   LIG    1       26.352 164.681  24.913  0.00  0.00    -0.392 OA
ATOM     39  H   LIG    1       26.243 164.009  24.219  0.00  0.00    +0.210 HD
ENDBRANCH  37  38
ENDBRANCH  36  37
ENDBRANCH  12   2
ENDBRANCH  13  12
TORSDOF 11
ENDMDL
MODEL 8
REMARK VINA RESULT:      -7.6      5.575     10.553
REMARK  Name = 5280637
REMARK                            x       y       z     vdW  Elec       q    Type
REMARK                         _______ _______ _______ _____ _____    ______ ____
ROOT
ATOM     13  C   LIG    1       18.240 165.598  18.479  0.00  0.00    +0.131 A 
ATOM     14  C   LIG    1       17.917 166.928  18.213  0.00  0.00    +0.092 A 
ATOM     15  C   LIG    1       18.662 167.959  18.788  0.00  0.00    +0.135 A 
ATOM     16  C   LIG    1       19.732 167.649  19.631  0.00  0.00    +0.105 A 
ATOM     17  C   LIG    1       20.534 168.713  20.252  0.00  0.00    +0.197 A 
ATOM     18  C   LIG    1       21.642 168.270  21.123  0.00  0.00    +0.098 A 
ATOM     19  C   LIG    1       21.858 166.957  21.297  0.00  0.00    +0.139 A 
ATOM     30  O   LIG    1       21.095 165.956  20.716  0.00  0.00    -0.454 OA
ATOM     31  O   LIG    1       20.304 169.899  20.065  0.00  0.00    -0.287 OA
ATOM     32  C   LIG    1       20.056 166.319  19.896  0.00  0.00    +0.146 A 
ATOM     35  C   LIG    1       19.310 165.291  19.321  0.00  0.00    +0.093 A 
ENDROOT
BRANCH  19  20
ATOM     20  C   LIG    1       22.945 166.456  22.163  0.00  0.00    +0.021 A 
ATOM     21  C   LIG    1       23.239 165.091  22.200  0.00  0.00    +0.015 A 
ATOM     22  C   LIG    1       24.265 164.618  23.019  0.00  0.00    +0.050 A 
ATOM     23  C   LIG    1       25.000 165.509  23.801  0.00  0.00    +0.158 A 
ATOM     24  C   LIG    1       24.708 166.873  23.766  0.00  0.00    +0.159 A 
ATOM     29  C   LIG    1       23.682 167.346  22.947  0.00  0.00    +0.060 A 
BRANCH  24  25
ATOM     25  O   LIG    1       25.421 167.752  24.525  0.00  0.00    -0.503 OA
ATOM     26  H   LIG    1       24.822 168.145  25.182  0.00  0.00    +0.292 HD
ENDBRANCH  24  25
BRANCH  23  27
ATOM     27  O   LIG    1       25.998 165.035  24.597  0.00  0.00    -0.503 OA
ATOM     28  H   LIG    1       25.607 164.513  25.319  0.00  0.00    +0.292 HD
ENDBRANCH  23  27
ENDBRANCH  19  20
BRANCH  15  33
ATOM     33  O   LIG    1       18.306 169.242  18.498  0.00  0.00    -0.506 OA
ATOM     34  H   LIG    1       17.342 169.336  18.502  0.00  0.00    +0.292 HD
ENDBRANCH  15  33
BRANCH  13  12
ATOM     12  O   LIG    1       17.508 164.594  17.915  0.00  0.00    -0.461 OA
BRANCH  12   2
ATOM      1  O   LIG    1       16.063 164.579  19.746  0.00  0.00    -0.331 OA
ATOM      2  C   LIG    1       16.146 164.488  18.326  0.00  0.00    +0.339 C 
ATOM      3  C   LIG    1       15.613 163.139  17.843  0.00  0.00    +0.214 C 
ATOM      4  C   LIG    1       14.201 162.878  18.371  0.00  0.00    +0.180 C 
ATOM      5  C   LIG    1       14.115 163.142  19.874  0.00  0.00    +0.177 C 
ATOM     36  C   LIG    1       14.717 164.505  20.222  0.00  0.00    +0.179 C 
BRANCH   5   6
ATOM      6  O   LIG    1       12.749 163.113  20.280  0.00  0.00    -0.386 OA
ATOM      7  H   LIG    1       12.466 164.028  20.445  0.00  0.00    +0.210 HD
ENDBRANCH   5   6
BRANCH   4   8
ATOM      8  O   LIG    1       13.853 161.512  18.140  0.00  0.00    -0.386 OA
ATOM      9  H   LIG    1       14.551 160.963  18.538  0.00  0.00    +0.210 HD
ENDBRANCH   4   8
BRANCH   3  10
ATOM     10  O   LIG    1       15.590 163.151  16.416  0.00  0.00    -0.383 OA
ATOM     11  H   LIG    1       16.496 162.995  16.098  0.00  0.00    +0.210 HD
ENDBRANCH   3  10
BRANCH  36  37
ATOM     37  C   LIG    1       14.749 164.741  21.729  0.00  0.00    +0.190 C 
BRANCH  37  38
ATOM     38  O   LIG    1       14.720 163.485  22.381  0.00  0.00    -0.392 OA
ATOM     39  H   LIG    1       15.385 163.504  23.090  0.00  0.00    +0.210 HD
ENDBRANCH  37  38
ENDBRANCH  36  37
ENDBRANCH  12   2
ENDBRANCH  13  12
TORSDOF 11
ENDMDL
MODEL 9
REMARK VINA RESULT:      -7.6      3.429      6.705
REMARK  Name = 5280637
REMARK                            x       y       z     vdW  Elec       q    Type
REMARK                         _______ _______ _______ _____ _____    ______ ____
ROOT
ATOM     13  C   LIG    1       18.164 163.292  19.473  0.00  0.00    +0.131 A 
ATOM     14  C   LIG    1       17.274 163.515  20.524  0.00  0.00    +0.092 A 
ATOM     15  C   LIG    1       15.916 163.707  20.265  0.00  0.00    +0.135 A 
ATOM     16  C   LIG    1       15.455 163.675  18.947  0.00  0.00    +0.105 A 
ATOM     17  C   LIG    1       14.031 163.876  18.642  0.00  0.00    +0.197 A 
ATOM     18  C   LIG    1       13.654 163.819  17.215  0.00  0.00    +0.098 A 
ATOM     19  C   LIG    1       14.603 163.591  16.293  0.00  0.00    +0.139 A 
ATOM     30  O   LIG    1       15.947 163.410  16.582  0.00  0.00    -0.454 OA
ATOM     31  O   LIG    1       13.198 164.079  19.514  0.00  0.00    -0.287 OA
ATOM     32  C   LIG    1       16.344 163.451  17.895  0.00  0.00    +0.146 A 
ATOM     35  C   LIG    1       17.700 163.260  18.157  0.00  0.00    +0.093 A 
ENDROOT
BRANCH  19  20
ATOM     20  C   LIG    1       14.287 163.532  14.851  0.00  0.00    +0.021 A 
ATOM     21  C   LIG    1       14.856 164.455  13.971  0.00  0.00    +0.015 A 
ATOM     22  C   LIG    1       14.557 164.400  12.609  0.00  0.00    +0.050 A 
ATOM     23  C   LIG    1       13.688 163.422  12.125  0.00  0.00    +0.158 A 
ATOM     24  C   LIG    1       13.118 162.500  13.002  0.00  0.00    +0.159 A 
ATOM     29  C   LIG    1       13.417 162.554  14.363  0.00  0.00    +0.060 A 
BRANCH  24  25
ATOM     25  O   LIG    1       12.269 161.539  12.539  0.00  0.00    -0.503 OA
ATOM     26  H   LIG    1       12.683 160.671  12.682  0.00  0.00    +0.292 HD
ENDBRANCH  24  25
BRANCH  23  27
ATOM     27  O   LIG    1       13.403 163.380  10.793  0.00  0.00    -0.503 OA
ATOM     28  H   LIG    1       14.229 163.479  10.289  0.00  0.00    +0.292 HD
ENDBRANCH  23  27
ENDBRANCH  19  20
BRANCH  15  33
ATOM     33  O   LIG    1       15.089 163.922  21.325  0.00  0.00    -0.506 OA
ATOM     34  H   LIG    1       15.141 163.186  21.953  0.00  0.00    +0.292 HD
ENDBRANCH  15  33
BRANCH  13  12
ATOM     12  O   LIG    1       19.490 163.105  19.732  0.00  0.00    -0.461 OA
BRANCH  12   2
ATOM      1  O   LIG    1       20.561 164.954  20.668  0.00  0.00    -0.331 OA
ATOM      2  C   LIG    1       19.991 163.676  20.939  0.00  0.00    +0.339 C 
ATOM      3  C   LIG    1       21.048 162.727  21.504  0.00  0.00    +0.214 C 
ATOM      4  C   LIG    1       21.747 163.333  22.722  0.00  0.00    +0.180 C 
ATOM      5  C   LIG    1       22.202 164.766  22.442  0.00  0.00    +0.177 C 
ATOM     36  C   LIG    1       21.060 165.592  21.845  0.00  0.00    +0.179 C 
BRANCH   5   6
ATOM      6  O   LIG    1       22.635 165.369  23.659  0.00  0.00    -0.386 OA
ATOM      7  H   LIG    1       22.835 166.303  23.476  0.00  0.00    +0.210 HD
ENDBRANCH   5   6
BRANCH   4   8
ATOM      8  O   LIG    1       22.902 162.557  23.044  0.00  0.00    -0.386 OA
ATOM      9  H   LIG    1       23.428 163.069  23.681  0.00  0.00    +0.210 HD
ENDBRANCH   4   8
BRANCH   3  10
ATOM     10  O   LIG    1       20.403 161.512  21.886  0.00  0.00    -0.383 OA
ATOM     11  H   LIG    1       20.541 161.384  22.840  0.00  0.00    +0.210 HD
ENDBRANCH   3  10
BRANCH  36  37
ATOM     37  C   LIG    1       21.523 166.990  21.449  0.00  0.00    +0.190 C 
BRANCH  37  38
ATOM     38  O   LIG    1       22.919 166.953  21.212  0.00  0.00    -0.392 OA
ATOM     39  H   LIG    1       23.139 166.064  20.884  0.00  0.00    +0.210 HD
ENDBRANCH  37  38
ENDBRANCH  36  37
ENDBRANCH  12   2
ENDBRANCH  13  12
TORSDOF 11
ENDMDL
