MODEL 1
REMARK VINA RESULT:      -7.4      0.000      0.000
REMARK  Name = 9823887
REMARK                            x       y       z     vdW  Elec       q    Type
REMARK                         _______ _______ _______ _____ _____    ______ ____
ROOT
ATOM      1  O   LIG    1        0.868  33.369  62.090  0.00  0.00    -0.341 OA
ATOM      2  C   LIG    1       -0.412  32.918  61.656  0.00  0.00    +0.282 C 
ATOM      3  C   LIG    1       -0.314  31.507  61.076  0.00  0.00    +0.201 C 
ATOM      4  C   LIG    1        0.349  30.545  62.061  0.00  0.00    +0.179 C 
ATOM      5  C   LIG    1        1.640  31.135  62.626  0.00  0.00    +0.177 C 
ATOM     22  C   LIG    1        1.410  32.560  63.135  0.00  0.00    +0.178 C 
ENDROOT
BRANCH   5   6
ATOM      6  O   LIG    1        2.101  30.319  63.700  0.00  0.00    -0.386 OA
ATOM      7  H   LIG    1        1.325  30.023  64.206  0.00  0.00    +0.210 HD
ENDBRANCH   5   6
BRANCH   4   8
ATOM      8  O   LIG    1        0.677  29.327  61.389  0.00  0.00    -0.386 OA
ATOM      9  H   LIG    1        0.083  29.249  60.623  0.00  0.00    +0.210 HD
ENDBRANCH   4   8
BRANCH   3  10
ATOM     10  O   LIG    1       -1.635  31.051  60.784  0.00  0.00    -0.384 OA
ATOM     11  H   LIG    1       -1.564  30.260  60.223  0.00  0.00    +0.210 HD
ENDBRANCH   3  10
BRANCH   2  12
ATOM     12  O   LIG    1       -0.906  33.781  60.633  0.00  0.00    -0.345 OA
BRANCH  12  13
ATOM     13  C   LIG    1       -1.634  34.868  61.182  0.00  0.00    +0.190 C 
BRANCH  13  14
ATOM     14  C   LIG    1       -3.081  34.499  61.240  0.00  0.00    +0.001 C 
ATOM     15  C   LIG    1       -3.765  34.378  62.388  0.00  0.00    +0.006 C 
BRANCH  15  16
ATOM     16  C   LIG    1       -5.193  34.031  62.494  0.00  0.00    -0.025 A 
ATOM     17  C   LIG    1       -6.072  34.938  63.064  0.00  0.00    +0.008 A 
ATOM     18  C   LIG    1       -7.423  34.608  63.163  0.00  0.00    +0.001 A 
ATOM     19  C   LIG    1       -7.879  33.377  62.693  0.00  0.00    +0.000 A 
ATOM     20  C   LIG    1       -6.982  32.474  62.122  0.00  0.00    +0.001 A 
ATOM     21  C   LIG    1       -5.630  32.803  62.022  0.00  0.00    +0.008 A 
ENDBRANCH  15  16
ENDBRANCH  13  14
ENDBRANCH  12  13
ENDBRANCH   2  12
BRANCH  22  23
ATOM     23  C   LIG    1        2.709  33.212  63.598  0.00  0.00    +0.197 C 
BRANCH  23  24
ATOM     24  O   LIG    1        3.080  32.645  64.841  0.00  0.00    -0.346 OA
BRANCH  24  25
ATOM     25  C   LIG    1        4.437  32.929  65.167  0.00  0.00    +0.281 C 
ATOM     26  C   LIG    1        4.570  34.387  65.631  0.00  0.00    +0.201 C 
ATOM     27  C   LIG    1        4.011  34.597  67.042  0.00  0.00    +0.178 C 
ATOM     28  C   LIG    1        4.569  33.535  67.992  0.00  0.00    +0.171 C 
ATOM     29  C   LIG    1        4.349  32.138  67.425  0.00  0.00    +0.197 C 
ATOM     36  O   LIG    1        4.957  32.017  66.141  0.00  0.00    -0.346 OA
BRANCH  28  30
ATOM     30  O   LIG    1        3.951  33.655  69.266  0.00  0.00    -0.387 OA
ATOM     31  H   LIG    1        3.477  34.504  69.284  0.00  0.00    +0.210 HD
ENDBRANCH  28  30
BRANCH  27  32
ATOM     32  O   LIG    1        2.588  34.501  67.012  0.00  0.00    -0.386 OA
ATOM     33  H   LIG    1        2.342  33.662  67.438  0.00  0.00    +0.210 HD
ENDBRANCH  27  32
BRANCH  26  34
ATOM     34  O   LIG    1        5.953  34.730  65.615  0.00  0.00    -0.384 OA
ATOM     35  H   LIG    1        6.451  34.023  66.057  0.00  0.00    +0.210 HD
ENDBRANCH  26  34
ENDBRANCH  24  25
ENDBRANCH  23  24
ENDBRANCH  22  23
TORSDOF 13
ENDMDL
MODEL 2
REMARK VINA RESULT:      -7.4      3.320      6.368
REMARK  Name = 9823887
REMARK                            x       y       z     vdW  Elec       q    Type
REMARK                         _______ _______ _______ _____ _____    ______ ____
ROOT
ATOM      1  O   LIG    1       -5.268  32.012  63.026  0.00  0.00    -0.341 OA
ATOM      2  C   LIG    1       -6.010  33.221  62.889  0.00  0.00    +0.282 C 
ATOM      3  C   LIG    1       -5.092  34.434  63.044  0.00  0.00    +0.201 C 
ATOM      4  C   LIG    1       -3.903  34.358  62.087  0.00  0.00    +0.179 C 
ATOM      5  C   LIG    1       -3.230  32.987  62.148  0.00  0.00    +0.177 C 
ATOM     22  C   LIG    1       -4.265  31.867  62.020  0.00  0.00    +0.178 C 
ENDROOT
BRANCH   5   6
ATOM      6  O   LIG    1       -2.283  32.878  61.088  0.00  0.00    -0.386 OA
ATOM      7  H   LIG    1       -1.823  33.732  61.008  0.00  0.00    +0.210 HD
ENDBRANCH   5   6
BRANCH   4   8
ATOM      8  O   LIG    1       -2.934  35.342  62.452  0.00  0.00    -0.386 OA
ATOM      9  H   LIG    1       -2.760  35.241  63.403  0.00  0.00    +0.210 HD
ENDBRANCH   4   8
BRANCH   3  10
ATOM     10  O   LIG    1       -5.852  35.609  62.763  0.00  0.00    -0.384 OA
ATOM     11  H   LIG    1       -6.008  35.645  61.805  0.00  0.00    +0.210 HD
ENDBRANCH   3  10
BRANCH   2  12
ATOM     12  O   LIG    1       -7.008  33.292  63.905  0.00  0.00    -0.345 OA
BRANCH  12  13
ATOM     13  C   LIG    1       -8.313  33.301  63.349  0.00  0.00    +0.190 C 
BRANCH  13  14
ATOM     14  C   LIG    1       -8.284  32.578  62.041  0.00  0.00    +0.001 C 
ATOM     15  C   LIG    1       -9.209  32.747  61.084  0.00  0.00    +0.006 C 
BRANCH  15  16
ATOM     16  C   LIG    1       -9.213  32.069  59.776  0.00  0.00    -0.025 A 
ATOM     17  C   LIG    1      -10.162  32.422  58.830  0.00  0.00    +0.008 A 
ATOM     18  C   LIG    1      -10.165  31.779  57.593  0.00  0.00    +0.001 A 
ATOM     19  C   LIG    1       -9.220  30.792  57.316  0.00  0.00    +0.000 A 
ATOM     20  C   LIG    1       -8.270  30.446  58.278  0.00  0.00    +0.001 A 
ATOM     21  C   LIG    1       -8.267  31.089  59.516  0.00  0.00    +0.008 A 
ENDBRANCH  15  16
ENDBRANCH  13  14
ENDBRANCH  12  13
ENDBRANCH   2  12
BRANCH  22  23
ATOM     23  C   LIG    1       -3.632  30.490  62.195  0.00  0.00    +0.197 C 
BRANCH  23  24
ATOM     24  O   LIG    1       -2.318  30.658  62.697  0.00  0.00    -0.346 OA
BRANCH  24  25
ATOM     25  C   LIG    1       -1.444  29.631  62.242  0.00  0.00    +0.281 C 
ATOM     26  C   LIG    1       -0.327  30.239  61.379  0.00  0.00    +0.201 C 
ATOM     27  C   LIG    1        0.712  30.984  62.223  0.00  0.00    +0.178 C 
ATOM     28  C   LIG    1        1.167  30.109  63.392  0.00  0.00    +0.171 C 
ATOM     29  C   LIG    1       -0.033  29.594  64.176  0.00  0.00    +0.197 C 
ATOM     36  O   LIG    1       -0.912  28.860  63.325  0.00  0.00    -0.346 OA
BRANCH  28  30
ATOM     30  O   LIG    1        2.033  30.849  64.241  0.00  0.00    -0.387 OA
ATOM     31  H   LIG    1        1.503  31.176  64.988  0.00  0.00    +0.210 HD
ENDBRANCH  28  30
BRANCH  27  32
ATOM     32  O   LIG    1        0.141  32.189  62.730  0.00  0.00    -0.386 OA
ATOM     33  H   LIG    1        0.871  32.748  63.048  0.00  0.00    +0.210 HD
ENDBRANCH  27  32
BRANCH  26  34
ATOM     34  O   LIG    1        0.311  29.179  60.672  0.00  0.00    -0.384 OA
ATOM     35  H   LIG    1        1.260  29.376  60.612  0.00  0.00    +0.210 HD
ENDBRANCH  26  34
ENDBRANCH  24  25
ENDBRANCH  23  24
ENDBRANCH  22  23
TORSDOF 13
ENDMDL
MODEL 3
REMARK VINA RESULT:      -7.3      2.153      3.735
REMARK  Name = 9823887
REMARK                            x       y       z     vdW  Elec       q    Type
REMARK                         _______ _______ _______ _____ _____    ______ ____
ROOT
ATOM      1  O   LIG    1       -1.596  31.994  62.418  0.00  0.00    -0.341 OA
ATOM      2  C   LIG    1       -2.708  32.668  61.834  0.00  0.00    +0.282 C 
ATOM      3  C   LIG    1       -2.398  34.153  61.648  0.00  0.00    +0.201 C 
ATOM      4  C   LIG    1       -1.103  34.357  60.863  0.00  0.00    +0.179 C 
ATOM      5  C   LIG    1        0.027  33.495  61.424  0.00  0.00    +0.177 C 
ATOM     22  C   LIG    1       -0.430  32.044  61.594  0.00  0.00    +0.178 C 
ENDROOT
BRANCH   5   6
ATOM      6  O   LIG    1        1.140  33.537  60.534  0.00  0.00    -0.386 OA
ATOM      7  H   LIG    1        1.291  32.636  60.200  0.00  0.00    +0.210 HD
ENDBRANCH   5   6
BRANCH   4   8
ATOM      8  O   LIG    1       -0.701  35.725  60.954  0.00  0.00    -0.386 OA
ATOM      9  H   LIG    1       -1.216  36.224  60.297  0.00  0.00    +0.210 HD
ENDBRANCH   4   8
BRANCH   3  10
ATOM     10  O   LIG    1       -3.482  34.752  60.939  0.00  0.00    -0.384 OA
ATOM     11  H   LIG    1       -3.217  35.652  60.686  0.00  0.00    +0.210 HD
ENDBRANCH   3  10
BRANCH   2  12
ATOM     12  O   LIG    1       -3.843  32.558  62.691  0.00  0.00    -0.345 OA
BRANCH  12  13
ATOM     13  C   LIG    1       -4.349  31.233  62.712  0.00  0.00    +0.190 C 
BRANCH  13  14
ATOM     14  C   LIG    1       -5.410  31.107  61.666  0.00  0.00    +0.001 C 
ATOM     15  C   LIG    1       -6.550  31.814  61.684  0.00  0.00    +0.006 C 
BRANCH  15  16
ATOM     16  C   LIG    1       -7.615  31.733  60.669  0.00  0.00    -0.025 A 
ATOM     17  C   LIG    1       -7.412  30.968  59.531  0.00  0.00    +0.008 A 
ATOM     18  C   LIG    1       -8.421  30.892  58.571  0.00  0.00    +0.001 A 
ATOM     19  C   LIG    1       -9.619  31.581  58.760  0.00  0.00    +0.000 A 
ATOM     20  C   LIG    1       -9.809  32.347  59.910  0.00  0.00    +0.001 A 
ATOM     21  C   LIG    1       -8.800  32.423  60.871  0.00  0.00    +0.008 A 
ENDBRANCH  15  16
ENDBRANCH  13  14
ENDBRANCH  12  13
ENDBRANCH   2  12
BRANCH  22  23
ATOM     23  C   LIG    1        0.643  31.188  62.261  0.00  0.00    +0.197 C 
BRANCH  23  24
ATOM     24  O   LIG    1        1.313  31.978  63.227  0.00  0.00    -0.346 OA
BRANCH  24  25
ATOM     25  C   LIG    1        2.717  31.742  63.220  0.00  0.00    +0.281 C 
ATOM     26  C   LIG    1        3.462  33.010  63.663  0.00  0.00    +0.201 C 
ATOM     27  C   LIG    1        3.340  33.254  65.171  0.00  0.00    +0.178 C 
ATOM     28  C   LIG    1        3.674  31.974  65.940  0.00  0.00    +0.171 C 
ATOM     29  C   LIG    1        2.849  30.804  65.418  0.00  0.00    +0.197 C 
ATOM     36  O   LIG    1        3.075  30.612  64.024  0.00  0.00    -0.346 OA
BRANCH  28  30
ATOM     30  O   LIG    1        3.436  32.169  67.327  0.00  0.00    -0.387 OA
ATOM     31  H   LIG    1        2.702  32.801  67.414  0.00  0.00    +0.210 HD
ENDBRANCH  28  30
BRANCH  27  32
ATOM     32  O   LIG    1        2.008  33.657  65.483  0.00  0.00    -0.386 OA
ATOM     33  H   LIG    1        2.064  34.363  66.150  0.00  0.00    +0.210 HD
ENDBRANCH  27  32
BRANCH  26  34
ATOM     34  O   LIG    1        4.837  32.856  63.320  0.00  0.00    -0.384 OA
ATOM     35  H   LIG    1        5.032  33.434  62.563  0.00  0.00    +0.210 HD
ENDBRANCH  26  34
ENDBRANCH  24  25
ENDBRANCH  23  24
ENDBRANCH  22  23
TORSDOF 13
ENDMDL
MODEL 4
REMARK VINA RESULT:      -7.1      2.385      3.726
REMARK  Name = 9823887
REMARK                            x       y       z     vdW  Elec       q    Type
REMARK                         _______ _______ _______ _____ _____    ______ ____
ROOT
ATOM      1  O   LIG    1       -1.984  31.541  63.733  0.00  0.00    -0.341 OA
ATOM      2  C   LIG    1       -2.804  31.167  62.628  0.00  0.00    +0.282 C 
ATOM      3  C   LIG    1       -1.946  30.900  61.391  0.00  0.00    +0.201 C 
ATOM      4  C   LIG    1       -0.847  29.880  61.686  0.00  0.00    +0.179 C 
ATOM      5  C   LIG    1       -0.094  30.232  62.968  0.00  0.00    +0.177 C 
ATOM     22  C   LIG    1       -1.071  30.511  64.113  0.00  0.00    +0.178 C 
ENDROOT
BRANCH   5   6
ATOM      6  O   LIG    1        0.757  29.146  63.328  0.00  0.00    -0.386 OA
ATOM      7  H   LIG    1        1.071  29.300  64.237  0.00  0.00    +0.210 HD
ENDBRANCH   5   6
BRANCH   4   8
ATOM      8  O   LIG    1        0.094  29.870  60.610  0.00  0.00    -0.386 OA
ATOM      9  H   LIG    1        0.662  29.090  60.728  0.00  0.00    +0.210 HD
ENDBRANCH   4   8
BRANCH   3  10
ATOM     10  O   LIG    1       -2.794  30.399  60.358  0.00  0.00    -0.384 OA
ATOM     11  H   LIG    1       -2.843  31.070  59.657  0.00  0.00    +0.210 HD
ENDBRANCH   3  10
BRANCH   2  12
ATOM     12  O   LIG    1       -3.708  32.226  62.318  0.00  0.00    -0.345 OA
BRANCH  12  13
ATOM     13  C   LIG    1       -5.015  31.946  62.793  0.00  0.00    +0.190 C 
BRANCH  13  14
ATOM     14  C   LIG    1       -5.993  32.204  61.693  0.00  0.00    +0.001 C 
ATOM     15  C   LIG    1       -7.002  31.372  61.394  0.00  0.00    +0.006 C 
BRANCH  15  16
ATOM     16  C   LIG    1       -7.998  31.592  60.330  0.00  0.00    -0.025 A 
ATOM     17  C   LIG    1       -9.095  32.400  60.583  0.00  0.00    +0.008 A 
ATOM     18  C   LIG    1      -10.037  32.608  59.576  0.00  0.00    +0.001 A 
ATOM     19  C   LIG    1       -9.870  32.005  58.329  0.00  0.00    +0.000 A 
ATOM     20  C   LIG    1       -8.761  31.195  58.089  0.00  0.00    +0.001 A 
ATOM     21  C   LIG    1       -7.819  30.987  59.097  0.00  0.00    +0.008 A 
ENDBRANCH  15  16
ENDBRANCH  13  14
ENDBRANCH  12  13
ENDBRANCH   2  12
BRANCH  22  23
ATOM     23  C   LIG    1       -0.347  30.978  65.372  0.00  0.00    +0.197 C 
BRANCH  23  24
ATOM     24  O   LIG    1        1.003  31.247  65.042  0.00  0.00    -0.346 OA
BRANCH  24  25
ATOM     25  C   LIG    1        1.318  32.627  65.192  0.00  0.00    +0.281 C 
ATOM     26  C   LIG    1        2.525  32.790  66.128  0.00  0.00    +0.201 C 
ATOM     27  C   LIG    1        3.840  32.391  65.450  0.00  0.00    +0.178 C 
ATOM     28  C   LIG    1        3.953  33.067  64.082  0.00  0.00    +0.171 C 
ATOM     29  C   LIG    1        2.705  32.806  63.249  0.00  0.00    +0.197 C 
ATOM     36  O   LIG    1        1.540  33.267  63.930  0.00  0.00    -0.346 OA
BRANCH  28  30
ATOM     30  O   LIG    1        5.109  32.595  63.405  0.00  0.00    -0.387 OA
ATOM     31  H   LIG    1        4.943  31.671  63.148  0.00  0.00    +0.210 HD
ENDBRANCH  28  30
BRANCH  27  32
ATOM     32  O   LIG    1        3.878  30.975  65.279  0.00  0.00    -0.386 OA
ATOM     33  H   LIG    1        3.316  30.756  64.516  0.00  0.00    +0.210 HD
ENDBRANCH  27  32
BRANCH  26  34
ATOM     34  O   LIG    1        2.595  34.158  66.524  0.00  0.00    -0.384 OA
ATOM     35  H   LIG    1        2.412  34.713  65.747  0.00  0.00    +0.210 HD
ENDBRANCH  26  34
ENDBRANCH  24  25
ENDBRANCH  23  24
ENDBRANCH  22  23
TORSDOF 13
ENDMDL
MODEL 5
REMARK VINA RESULT:      -7.1      3.483     10.878
REMARK  Name = 9823887
REMARK                            x       y       z     vdW  Elec       q    Type
REMARK                         _______ _______ _______ _____ _____    ______ ____
ROOT
ATOM      1  O   LIG    1        3.837  31.010  66.050  0.00  0.00    -0.341 OA
ATOM      2  C   LIG    1        4.013  31.715  67.277  0.00  0.00    +0.282 C 
ATOM      3  C   LIG    1        5.079  32.800  67.122  0.00  0.00    +0.201 C 
ATOM      4  C   LIG    1        4.766  33.725  65.947  0.00  0.00    +0.179 C 
ATOM      5  C   LIG    1        4.426  32.927  64.689  0.00  0.00    +0.177 C 
ATOM     22  C   LIG    1        3.378  31.854  64.993  0.00  0.00    +0.178 C 
ENDROOT
BRANCH   5   6
ATOM      6  O   LIG    1        3.921  33.811  63.692  0.00  0.00    -0.386 OA
ATOM      7  H   LIG    1        3.216  34.347  64.095  0.00  0.00    +0.210 HD
ENDBRANCH   5   6
BRANCH   4   8
ATOM      8  O   LIG    1        5.908  34.535  65.662  0.00  0.00    -0.386 OA
ATOM      9  H   LIG    1        6.589  34.321  66.322  0.00  0.00    +0.210 HD
ENDBRANCH   4   8
BRANCH   3  10
ATOM     10  O   LIG    1        5.120  33.562  68.329  0.00  0.00    -0.384 OA
ATOM     11  H   LIG    1        5.292  32.952  69.065  0.00  0.00    +0.210 HD
ENDBRANCH   3  10
BRANCH   2  12
ATOM     12  O   LIG    1        4.445  30.814  68.294  0.00  0.00    -0.345 OA
BRANCH  12  13
ATOM     13  C   LIG    1        5.093  29.680  67.738  0.00  0.00    +0.190 C 
BRANCH  13  14
ATOM     14  C   LIG    1        6.555  29.767  68.036  0.00  0.00    +0.001 C 
ATOM     15  C   LIG    1        7.143  29.106  69.045  0.00  0.00    +0.006 C 
BRANCH  15  16
ATOM     16  C   LIG    1        8.580  29.150  69.367  0.00  0.00    -0.025 A 
ATOM     17  C   LIG    1        9.276  30.338  69.206  0.00  0.00    +0.008 A 
ATOM     18  C   LIG    1       10.636  30.378  69.511  0.00  0.00    +0.001 A 
ATOM     19  C   LIG    1       11.283  29.231  69.971  0.00  0.00    +0.000 A 
ATOM     20  C   LIG    1       10.570  28.043  70.127  0.00  0.00    +0.001 A 
ATOM     21  C   LIG    1        9.209  28.003  69.823  0.00  0.00    +0.008 A 
ENDBRANCH  15  16
ENDBRANCH  13  14
ENDBRANCH  12  13
ENDBRANCH   2  12
BRANCH  22  23
ATOM     23  C   LIG    1        3.108  30.968  63.781  0.00  0.00    +0.197 C 
BRANCH  23  24
ATOM     24  O   LIG    1        2.195  31.637  62.929  0.00  0.00    -0.346 OA
BRANCH  24  25
ATOM     25  C   LIG    1        0.930  31.826  63.555  0.00  0.00    +0.281 C 
ATOM     26  C   LIG    1        0.032  32.700  62.665  0.00  0.00    +0.201 C 
ATOM     27  C   LIG    1       -0.495  31.933  61.448  0.00  0.00    +0.178 C 
ATOM     28  C   LIG    1       -1.084  30.591  61.886  0.00  0.00    +0.171 C 
ATOM     29  C   LIG    1       -0.085  29.818  62.737  0.00  0.00    +0.197 C 
ATOM     36  O   LIG    1        0.300  30.581  63.878  0.00  0.00    -0.346 OA
BRANCH  28  30
ATOM     30  O   LIG    1       -1.455  29.831  60.744  0.00  0.00    -0.387 OA
ATOM     31  H   LIG    1       -2.024  29.103  61.048  0.00  0.00    +0.210 HD
ENDBRANCH  28  30
BRANCH  27  32
ATOM     32  O   LIG    1        0.572  31.702  60.530  0.00  0.00    -0.386 OA
ATOM     33  H   LIG    1        1.278  32.339  60.736  0.00  0.00    +0.210 HD
ENDBRANCH  27  32
BRANCH  26  34
ATOM     34  O   LIG    1       -1.067  33.148  63.454  0.00  0.00    -0.384 OA
ATOM     35  H   LIG    1       -0.997  32.746  64.336  0.00  0.00    +0.210 HD
ENDBRANCH  26  34
ENDBRANCH  24  25
ENDBRANCH  23  24
ENDBRANCH  22  23
TORSDOF 13
ENDMDL
MODEL 6
REMARK VINA RESULT:      -7.0      3.252     10.723
REMARK  Name = 9823887
REMARK                            x       y       z     vdW  Elec       q    Type
REMARK                         _______ _______ _______ _____ _____    ______ ____
ROOT
ATOM      1  O   LIG    1        3.740  30.871  64.636  0.00  0.00    -0.341 OA
ATOM      2  C   LIG    1        4.366  31.256  65.858  0.00  0.00    +0.282 C 
ATOM      3  C   LIG    1        4.666  32.755  65.857  0.00  0.00    +0.201 C 
ATOM      4  C   LIG    1        3.413  33.574  65.550  0.00  0.00    +0.179 C 
ATOM      5  C   LIG    1        2.682  33.030  64.323  0.00  0.00    +0.177 C 
ATOM     22  C   LIG    1        2.481  31.517  64.437  0.00  0.00    +0.178 C 
ENDROOT
BRANCH   5   6
ATOM      6  O   LIG    1        1.412  33.667  64.209  0.00  0.00    -0.386 OA
ATOM      7  H   LIG    1        1.556  34.558  63.845  0.00  0.00    +0.210 HD
ENDBRANCH   5   6
BRANCH   4   8
ATOM      8  O   LIG    1        3.783  34.927  65.280  0.00  0.00    -0.386 OA
ATOM      9  H   LIG    1        4.184  34.948  64.395  0.00  0.00    +0.210 HD
ENDBRANCH   4   8
BRANCH   3  10
ATOM     10  O   LIG    1        5.163  33.113  67.147  0.00  0.00    -0.384 OA
ATOM     11  H   LIG    1        5.042  32.351  67.738  0.00  0.00    +0.210 HD
ENDBRANCH   3  10
BRANCH   2  12
ATOM     12  O   LIG    1        5.601  30.559  66.007  0.00  0.00    -0.345 OA
BRANCH  12  13
ATOM     13  C   LIG    1        5.590  29.728  67.157  0.00  0.00    +0.190 C 
BRANCH  13  14
ATOM     14  C   LIG    1        6.906  29.854  67.856  0.00  0.00    +0.001 C 
ATOM     15  C   LIG    1        7.050  30.439  69.055  0.00  0.00    +0.006 C 
BRANCH  15  16
ATOM     16  C   LIG    1        8.322  30.573  69.786  0.00  0.00    -0.025 A 
ATOM     17  C   LIG    1        9.359  29.694  69.513  0.00  0.00    +0.008 A 
ATOM     18  C   LIG    1       10.562  29.822  70.206  0.00  0.00    +0.001 A 
ATOM     19  C   LIG    1       10.714  30.825  71.163  0.00  0.00    +0.000 A 
ATOM     20  C   LIG    1        9.662  31.701  71.428  0.00  0.00    +0.001 A 
ATOM     21  C   LIG    1        8.458  31.574  70.735  0.00  0.00    +0.008 A 
ENDBRANCH  15  16
ENDBRANCH  13  14
ENDBRANCH  12  13
ENDBRANCH   2  12
BRANCH  22  23
ATOM     23  C   LIG    1        1.858  30.932  63.173  0.00  0.00    +0.197 C 
BRANCH  23  24
ATOM     24  O   LIG    1        0.517  31.378  63.084  0.00  0.00    -0.346 OA
BRANCH  24  25
ATOM     25  C   LIG    1        0.006  31.255  61.761  0.00  0.00    +0.281 C 
ATOM     26  C   LIG    1       -1.483  31.631  61.739  0.00  0.00    +0.201 C 
ATOM     27  C   LIG    1       -1.698  33.143  61.863  0.00  0.00    +0.178 C 
ATOM     28  C   LIG    1       -0.802  33.886  60.870  0.00  0.00    +0.171 C 
ATOM     29  C   LIG    1        0.647  33.438  61.015  0.00  0.00    +0.197 C 
ATOM     36  O   LIG    1        0.759  32.030  60.821  0.00  0.00    -0.346 OA
BRANCH  28  30
ATOM     30  O   LIG    1       -0.911  35.287  61.076  0.00  0.00    -0.387 OA
ATOM     31  H   LIG    1       -1.033  35.435  62.029  0.00  0.00    +0.210 HD
ENDBRANCH  28  30
BRANCH  27  32
ATOM     32  O   LIG    1       -1.382  33.564  63.188  0.00  0.00    -0.386 OA
ATOM     33  H   LIG    1       -0.940  34.428  63.124  0.00  0.00    +0.210 HD
ENDBRANCH  27  32
BRANCH  26  34
ATOM     34  O   LIG    1       -2.034  31.175  60.506  0.00  0.00    -0.384 OA
ATOM     35  H   LIG    1       -1.562  31.612  59.777  0.00  0.00    +0.210 HD
ENDBRANCH  26  34
ENDBRANCH  24  25
ENDBRANCH  23  24
ENDBRANCH  22  23
TORSDOF 13
ENDMDL
MODEL 7
REMARK VINA RESULT:      -7.0      3.786      6.895
REMARK  Name = 9823887
REMARK                            x       y       z     vdW  Elec       q    Type
REMARK                         _______ _______ _______ _____ _____    ______ ____
ROOT
ATOM      1  O   LIG    1        4.795  30.805  66.071  0.00  0.00    -0.341 OA
ATOM      2  C   LIG    1        4.682  31.604  64.896  0.00  0.00    +0.282 C 
ATOM      3  C   LIG    1        4.302  33.040  65.259  0.00  0.00    +0.201 C 
ATOM      4  C   LIG    1        5.270  33.629  66.284  0.00  0.00    +0.179 C 
ATOM      5  C   LIG    1        5.488  32.671  67.454  0.00  0.00    +0.177 C 
ATOM     22  C   LIG    1        5.823  31.265  66.950  0.00  0.00    +0.178 C 
ENDROOT
BRANCH   5   6
ATOM      6  O   LIG    1        6.560  33.150  68.263  0.00  0.00    -0.386 OA
ATOM      7  H   LIG    1        7.392  32.983  67.786  0.00  0.00    +0.210 HD
ENDBRANCH   5   6
BRANCH   4   8
ATOM      8  O   LIG    1        4.729  34.845  66.804  0.00  0.00    -0.386 OA
ATOM      9  H   LIG    1        4.407  35.367  66.050  0.00  0.00    +0.210 HD
ENDBRANCH   4   8
BRANCH   3  10
ATOM     10  O   LIG    1        4.336  33.826  64.068  0.00  0.00    -0.384 OA
ATOM     11  H   LIG    1        5.201  34.266  64.022  0.00  0.00    +0.210 HD
ENDBRANCH   3  10
BRANCH   2  12
ATOM     12  O   LIG    1        3.660  31.078  64.052  0.00  0.00    -0.345 OA
BRANCH  12  13
ATOM     13  C   LIG    1        2.496  30.749  64.793  0.00  0.00    +0.190 C 
BRANCH  13  14
ATOM     14  C   LIG    1        1.320  31.433  64.172  0.00  0.00    +0.001 C 
ATOM     15  C   LIG    1        1.396  32.144  63.036  0.00  0.00    +0.006 C 
BRANCH  15  16
ATOM     16  C   LIG    1        0.264  32.821  62.381  0.00  0.00    -0.025 A 
ATOM     17  C   LIG    1       -1.030  32.500  62.758  0.00  0.00    +0.008 A 
ATOM     18  C   LIG    1       -2.101  33.142  62.138  0.00  0.00    +0.001 A 
ATOM     19  C   LIG    1       -1.865  34.096  61.148  0.00  0.00    +0.000 A 
ATOM     20  C   LIG    1       -0.558  34.409  60.779  0.00  0.00    +0.001 A 
ATOM     21  C   LIG    1        0.514  33.767  61.400  0.00  0.00    +0.008 A 
ENDBRANCH  15  16
ENDBRANCH  13  14
ENDBRANCH  12  13
ENDBRANCH   2  12
BRANCH  22  23
ATOM     23  C   LIG    1        5.931  30.264  68.096  0.00  0.00    +0.197 C 
BRANCH  23  24
ATOM     24  O   LIG    1        7.301  29.997  68.334  0.00  0.00    -0.346 OA
BRANCH  24  25
ATOM     25  C   LIG    1        7.648  30.190  69.701  0.00  0.00    +0.281 C 
ATOM     26  C   LIG    1        7.239  28.958  70.523  0.00  0.00    +0.201 C 
ATOM     27  C   LIG    1        8.172  27.767  70.280  0.00  0.00    +0.178 C 
ATOM     28  C   LIG    1        9.632  28.207  70.407  0.00  0.00    +0.171 C 
ATOM     29  C   LIG    1        9.907  29.417  69.524  0.00  0.00    +0.197 C 
ATOM     36  O   LIG    1        9.038  30.495  69.864  0.00  0.00    -0.346 OA
BRANCH  28  30
ATOM     30  O   LIG    1       10.492  27.132  70.057  0.00  0.00    -0.387 OA
ATOM     31  H   LIG    1        9.949  26.451  69.622  0.00  0.00    +0.210 HD
ENDBRANCH  28  30
BRANCH  27  32
ATOM     32  O   LIG    1        7.950  27.246  68.971  0.00  0.00    -0.386 OA
ATOM     33  H   LIG    1        7.814  26.287  69.057  0.00  0.00    +0.210 HD
ENDBRANCH  27  32
BRANCH  26  34
ATOM     34  O   LIG    1        7.280  29.316  71.903  0.00  0.00    -0.384 OA
ATOM     35  H   LIG    1        7.768  28.628  72.385  0.00  0.00    +0.210 HD
ENDBRANCH  26  34
ENDBRANCH  24  25
ENDBRANCH  23  24
ENDBRANCH  22  23
TORSDOF 13
ENDMDL
MODEL 8
REMARK VINA RESULT:      -7.0      1.748      3.088
REMARK  Name = 9823887
REMARK                            x       y       z     vdW  Elec       q    Type
REMARK                         _______ _______ _______ _____ _____    ______ ____
ROOT
ATOM      1  O   LIG    1       -0.389  30.890  63.114  0.00  0.00    -0.341 OA
ATOM      2  C   LIG    1       -1.222  31.067  61.970  0.00  0.00    +0.282 C 
ATOM      3  C   LIG    1       -1.223  32.532  61.531  0.00  0.00    +0.201 C 
ATOM      4  C   LIG    1        0.198  33.050  61.314  0.00  0.00    +0.179 C 
ATOM      5  C   LIG    1        1.101  32.699  62.496  0.00  0.00    +0.177 C 
ATOM     22  C   LIG    1        0.977  31.216  62.853  0.00  0.00    +0.178 C 
ENDROOT
BRANCH   5   6
ATOM      6  O   LIG    1        2.455  32.991  62.158  0.00  0.00    -0.386 OA
ATOM      7  H   LIG    1        2.503  33.927  61.896  0.00  0.00    +0.210 HD
ENDBRANCH   5   6
BRANCH   4   8
ATOM      8  O   LIG    1        0.172  34.472  61.186  0.00  0.00    -0.386 OA
ATOM      9  H   LIG    1       -0.560  34.801  61.736  0.00  0.00    +0.210 HD
ENDBRANCH   4   8
BRANCH   3  10
ATOM     10  O   LIG    1       -1.956  32.632  60.310  0.00  0.00    -0.384 OA
ATOM     11  H   LIG    1       -2.857  32.927  60.523  0.00  0.00    +0.210 HD
ENDBRANCH   3  10
BRANCH   2  12
ATOM     12  O   LIG    1       -2.563  30.701  62.289  0.00  0.00    -0.345 OA
BRANCH  12  13
ATOM     13  C   LIG    1       -3.097  31.532  63.307  0.00  0.00    +0.190 C 
BRANCH  13  14
ATOM     14  C   LIG    1       -4.497  31.906  62.938  0.00  0.00    +0.001 C 
ATOM     15  C   LIG    1       -5.124  31.431  61.851  0.00  0.00    +0.006 C 
BRANCH  15  16
ATOM     16  C   LIG    1       -6.505  31.760  61.456  0.00  0.00    -0.025 A 
ATOM     17  C   LIG    1       -7.047  31.169  60.325  0.00  0.00    +0.008 A 
ATOM     18  C   LIG    1       -8.354  31.481  59.953  0.00  0.00    +0.001 A 
ATOM     19  C   LIG    1       -9.103  32.378  60.714  0.00  0.00    +0.000 A 
ATOM     20  C   LIG    1       -8.544  32.965  61.849  0.00  0.00    +0.001 A 
ATOM     21  C   LIG    1       -7.236  32.653  62.222  0.00  0.00    +0.008 A 
ENDBRANCH  15  16
ENDBRANCH  13  14
ENDBRANCH  12  13
ENDBRANCH   2  12
BRANCH  22  23
ATOM     23  C   LIG    1        1.781  30.866  64.103  0.00  0.00    +0.197 C 
BRANCH  23  24
ATOM     24  O   LIG    1        2.072  32.063  64.800  0.00  0.00    -0.346 OA
BRANCH  24  25
ATOM     25  C   LIG    1        2.769  31.810  66.016  0.00  0.00    +0.281 C 
ATOM     26  C   LIG    1        4.179  31.281  65.710  0.00  0.00    +0.201 C 
ATOM     27  C   LIG    1        5.113  32.388  65.208  0.00  0.00    +0.178 C 
ATOM     28  C   LIG    1        5.036  33.602  66.134  0.00  0.00    +0.171 C 
ATOM     29  C   LIG    1        3.589  34.036  66.332  0.00  0.00    +0.197 C 
ATOM     36  O   LIG    1        2.811  32.965  66.861  0.00  0.00    -0.346 OA
BRANCH  28  30
ATOM     30  O   LIG    1        5.805  34.669  65.596  0.00  0.00    -0.387 OA
ATOM     31  H   LIG    1        5.223  35.183  65.010  0.00  0.00    +0.210 HD
ENDBRANCH  28  30
BRANCH  27  32
ATOM     32  O   LIG    1        4.729  32.776  63.890  0.00  0.00    -0.386 OA
ATOM     33  H   LIG    1        5.298  32.294  63.265  0.00  0.00    +0.210 HD
ENDBRANCH  27  32
BRANCH  26  34
ATOM     34  O   LIG    1        4.710  30.723  66.909  0.00  0.00    -0.384 OA
ATOM     35  H   LIG    1        4.062  30.095  67.269  0.00  0.00    +0.210 HD
ENDBRANCH  26  34
ENDBRANCH  24  25
ENDBRANCH  23  24
ENDBRANCH  22  23
TORSDOF 13
ENDMDL
MODEL 9
REMARK VINA RESULT:      -7.0     14.841     18.457
REMARK  Name = 9823887
REMARK                            x       y       z     vdW  Elec       q    Type
REMARK                         _______ _______ _______ _____ _____    ______ ____
ROOT
ATOM      1  O   LIG    1        5.689  16.713  66.598  0.00  0.00    -0.341 OA
ATOM      2  C   LIG    1        5.626  17.768  65.641  0.00  0.00    +0.282 C 
ATOM      3  C   LIG    1        7.026  18.308  65.348  0.00  0.00    +0.201 C 
ATOM      4  C   LIG    1        7.980  17.188  64.933  0.00  0.00    +0.179 C 
ATOM      5  C   LIG    1        7.900  16.007  65.898  0.00  0.00    +0.177 C 
ATOM     22  C   LIG    1        6.444  15.593  66.132  0.00  0.00    +0.178 C 
ENDROOT
BRANCH   5   6
ATOM      6  O   LIG    1        8.621  14.904  65.356  0.00  0.00    -0.386 OA
ATOM      7  H   LIG    1        9.563  15.031  65.564  0.00  0.00    +0.210 HD
ENDBRANCH   5   6
BRANCH   4   8
ATOM      8  O   LIG    1        9.322  17.678  64.944  0.00  0.00    -0.386 OA
ATOM      9  H   LIG    1        9.491  18.043  65.829  0.00  0.00    +0.210 HD
ENDBRANCH   4   8
BRANCH   3  10
ATOM     10  O   LIG    1        6.925  19.261  64.290  0.00  0.00    -0.384 OA
ATOM     11  H   LIG    1        5.997  19.544  64.227  0.00  0.00    +0.210 HD
ENDBRANCH   3  10
BRANCH   2  12
ATOM     12  O   LIG    1        4.839  18.840  66.156  0.00  0.00    -0.345 OA
BRANCH  12  13
ATOM     13  C   LIG    1        4.374  18.557  67.466  0.00  0.00    +0.190 C 
BRANCH  13  14
ATOM     14  C   LIG    1        5.026  19.504  68.422  0.00  0.00    +0.001 C 
ATOM     15  C   LIG    1        5.805  20.525  68.033  0.00  0.00    +0.006 C 
BRANCH  15  16
ATOM     16  C   LIG    1        6.455  21.489  68.937  0.00  0.00    -0.025 A 
ATOM     17  C   LIG    1        7.006  22.647  68.412  0.00  0.00    +0.008 A 
ATOM     18  C   LIG    1        7.621  23.560  69.269  0.00  0.00    +0.001 A 
ATOM     19  C   LIG    1        7.677  23.304  70.638  0.00  0.00    +0.000 A 
ATOM     20  C   LIG    1        7.118  22.135  71.153  0.00  0.00    +0.001 A 
ATOM     21  C   LIG    1        6.502  21.221  70.296  0.00  0.00    +0.008 A 
ENDBRANCH  15  16
ENDBRANCH  13  14
ENDBRANCH  12  13
ENDBRANCH   2  12
BRANCH  22  23
ATOM     23  C   LIG    1        6.331  14.492  67.182  0.00  0.00    +0.197 C 
BRANCH  23  24
ATOM     24  O   LIG    1        5.218  13.677  66.862  0.00  0.00    -0.346 OA
BRANCH  24  25
ATOM     25  C   LIG    1        4.338  13.526  67.970  0.00  0.00    +0.281 C 
ATOM     26  C   LIG    1        3.537  14.819  68.183  0.00  0.00    +0.201 C 
ATOM     27  C   LIG    1        2.443  15.001  67.124  0.00  0.00    +0.178 C 
ATOM     28  C   LIG    1        1.624  13.716  66.988  0.00  0.00    +0.171 C 
ATOM     29  C   LIG    1        2.537  12.519  66.757  0.00  0.00    +0.197 C 
ATOM     36  O   LIG    1        3.477  12.391  67.822  0.00  0.00    -0.346 OA
BRANCH  28  30
ATOM     30  O   LIG    1        0.697  13.846  65.920  0.00  0.00    -0.387 OA
ATOM     31  H   LIG    1        0.892  14.682  65.461  0.00  0.00    +0.210 HD
ENDBRANCH  28  30
BRANCH  27  32
ATOM     32  O   LIG    1        3.042  15.312  65.868  0.00  0.00    -0.386 OA
ATOM     33  H   LIG    1        2.568  16.077  65.499  0.00  0.00    +0.210 HD
ENDBRANCH  27  32
BRANCH  26  34
ATOM     34  O   LIG    1        2.937  14.760  69.475  0.00  0.00    -0.384 OA
ATOM     35  H   LIG    1        2.311  14.016  69.490  0.00  0.00    +0.210 HD
ENDBRANCH  26  34
ENDBRANCH  24  25
ENDBRANCH  23  24
ENDBRANCH  22  23
TORSDOF 13
ENDMDL
