MODEL 1
REMARK VINA RESULT:      -7.5      0.000      0.000
REMARK  Name = 9823887
REMARK                            x       y       z     vdW  Elec       q    Type
REMARK                         _______ _______ _______ _____ _____    ______ ____
ROOT
ATOM      1  O   LIG    1        0.840  33.366  61.859  0.00  0.00    -0.341 OA
ATOM      2  C   LIG    1       -0.514  33.057  61.538  0.00  0.00    +0.282 C 
ATOM      3  C   LIG    1       -0.614  31.658  60.929  0.00  0.00    +0.201 C 
ATOM      4  C   LIG    1        0.035  30.610  61.833  0.00  0.00    +0.179 C 
ATOM      5  C   LIG    1        1.425  31.053  62.285  0.00  0.00    +0.177 C 
ATOM     22  C   LIG    1        1.388  32.481  62.836  0.00  0.00    +0.178 C 
ENDROOT
BRANCH   5   6
ATOM      6  O   LIG    1        1.896  30.169  63.299  0.00  0.00    -0.386 OA
ATOM      7  H   LIG    1        2.864  30.258  63.348  0.00  0.00    +0.210 HD
ENDBRANCH   5   6
BRANCH   4   8
ATOM      8  O   LIG    1        0.174  29.383  61.115  0.00  0.00    -0.386 OA
ATOM      9  H   LIG    1       -0.672  29.209  60.669  0.00  0.00    +0.210 HD
ENDBRANCH   4   8
BRANCH   3  10
ATOM     10  O   LIG    1       -1.995  31.344  60.754  0.00  0.00    -0.384 OA
ATOM     11  H   LIG    1       -2.472  31.627  61.552  0.00  0.00    +0.210 HD
ENDBRANCH   3  10
BRANCH   2  12
ATOM     12  O   LIG    1       -1.008  33.990  60.579  0.00  0.00    -0.345 OA
BRANCH  12  13
ATOM     13  C   LIG    1       -1.740  35.034  61.203  0.00  0.00    +0.190 C 
BRANCH  13  14
ATOM     14  C   LIG    1       -3.182  34.645  61.259  0.00  0.00    +0.001 C 
ATOM     15  C   LIG    1       -3.828  34.373  62.403  0.00  0.00    +0.006 C 
BRANCH  15  16
ATOM     16  C   LIG    1       -5.250  34.001  62.508  0.00  0.00    -0.025 A 
ATOM     17  C   LIG    1       -5.663  32.760  62.048  0.00  0.00    +0.008 A 
ATOM     18  C   LIG    1       -7.008  32.408  62.148  0.00  0.00    +0.001 A 
ATOM     19  C   LIG    1       -7.924  33.301  62.704  0.00  0.00    +0.000 A 
ATOM     20  C   LIG    1       -7.494  34.546  63.163  0.00  0.00    +0.001 A 
ATOM     21  C   LIG    1       -6.148  34.898  63.063  0.00  0.00    +0.008 A 
ENDBRANCH  15  16
ENDBRANCH  13  14
ENDBRANCH  12  13
ENDBRANCH   2  12
BRANCH  22  23
ATOM     23  C   LIG    1        2.784  32.988  63.186  0.00  0.00    +0.197 C 
BRANCH  23  24
ATOM     24  O   LIG    1        2.991  32.816  64.576  0.00  0.00    -0.346 OA
BRANCH  24  25
ATOM     25  C   LIG    1        4.354  33.013  64.936  0.00  0.00    +0.281 C 
ATOM     26  C   LIG    1        4.537  34.411  65.546  0.00  0.00    +0.201 C 
ATOM     27  C   LIG    1        3.973  34.497  66.969  0.00  0.00    +0.178 C 
ATOM     28  C   LIG    1        4.482  33.325  67.809  0.00  0.00    +0.171 C 
ATOM     29  C   LIG    1        4.216  32.002  67.102  0.00  0.00    +0.197 C 
ATOM     36  O   LIG    1        4.831  31.988  65.815  0.00  0.00    -0.346 OA
BRANCH  28  30
ATOM     30  O   LIG    1        3.858  33.339  69.085  0.00  0.00    -0.387 OA
ATOM     31  H   LIG    1        4.561  33.401  69.755  0.00  0.00    +0.210 HD
ENDBRANCH  28  30
BRANCH  27  32
ATOM     32  O   LIG    1        2.548  34.459  66.921  0.00  0.00    -0.386 OA
ATOM     33  H   LIG    1        2.251  35.238  66.420  0.00  0.00    +0.210 HD
ENDBRANCH  27  32
BRANCH  26  34
ATOM     34  O   LIG    1        5.932  34.701  65.573  0.00  0.00    -0.384 OA
ATOM     35  H   LIG    1        6.415  33.875  65.744  0.00  0.00    +0.210 HD
ENDBRANCH  26  34
ENDBRANCH  24  25
ENDBRANCH  23  24
ENDBRANCH  22  23
TORSDOF 13
ENDMDL
MODEL 2
REMARK VINA RESULT:      -7.4      3.199      6.242
REMARK  Name = 9823887
REMARK                            x       y       z     vdW  Elec       q    Type
REMARK                         _______ _______ _______ _____ _____    ______ ____
ROOT
ATOM      1  O   LIG    1       -5.238  32.036  63.045  0.00  0.00    -0.341 OA
ATOM      2  C   LIG    1       -5.989  33.240  62.909  0.00  0.00    +0.282 C 
ATOM      3  C   LIG    1       -5.078  34.459  63.053  0.00  0.00    +0.201 C 
ATOM      4  C   LIG    1       -3.895  34.387  62.089  0.00  0.00    +0.179 C 
ATOM      5  C   LIG    1       -3.212  33.022  62.151  0.00  0.00    +0.177 C 
ATOM     22  C   LIG    1       -4.241  31.894  62.032  0.00  0.00    +0.178 C 
ENDROOT
BRANCH   5   6
ATOM      6  O   LIG    1       -2.271  32.915  61.085  0.00  0.00    -0.386 OA
ATOM      7  H   LIG    1       -1.843  32.044  61.149  0.00  0.00    +0.210 HD
ENDBRANCH   5   6
BRANCH   4   8
ATOM      8  O   LIG    1       -2.930  35.380  62.444  0.00  0.00    -0.386 OA
ATOM      9  H   LIG    1       -2.066  34.937  62.505  0.00  0.00    +0.210 HD
ENDBRANCH   4   8
BRANCH   3  10
ATOM     10  O   LIG    1       -5.847  35.629  62.774  0.00  0.00    -0.384 OA
ATOM     11  H   LIG    1       -6.393  35.824  63.554  0.00  0.00    +0.210 HD
ENDBRANCH   3  10
BRANCH   2  12
ATOM     12  O   LIG    1       -6.981  33.308  63.931  0.00  0.00    -0.345 OA
BRANCH  12  13
ATOM     13  C   LIG    1       -8.289  33.319  63.382  0.00  0.00    +0.190 C 
BRANCH  13  14
ATOM     14  C   LIG    1       -8.274  32.574  62.087  0.00  0.00    +0.001 C 
ATOM     15  C   LIG    1       -9.156  32.795  61.099  0.00  0.00    +0.006 C 
BRANCH  15  16
ATOM     16  C   LIG    1       -9.171  32.096  59.802  0.00  0.00    -0.025 A 
ATOM     17  C   LIG    1      -10.141  32.420  58.867  0.00  0.00    +0.008 A 
ATOM     18  C   LIG    1      -10.155  31.758  57.640  0.00  0.00    +0.001 A 
ATOM     19  C   LIG    1       -9.199  30.781  57.363  0.00  0.00    +0.000 A 
ATOM     20  C   LIG    1       -8.228  30.466  58.313  0.00  0.00    +0.001 A 
ATOM     21  C   LIG    1       -8.215  31.128  59.541  0.00  0.00    +0.008 A 
ENDBRANCH  15  16
ENDBRANCH  13  14
ENDBRANCH  12  13
ENDBRANCH   2  12
BRANCH  22  23
ATOM     23  C   LIG    1       -3.598  30.522  62.208  0.00  0.00    +0.197 C 
BRANCH  23  24
ATOM     24  O   LIG    1       -2.278  30.701  62.689  0.00  0.00    -0.346 OA
BRANCH  24  25
ATOM     25  C   LIG    1       -1.409  29.664  62.246  0.00  0.00    +0.281 C 
ATOM     26  C   LIG    1       -0.285  30.256  61.383  0.00  0.00    +0.201 C 
ATOM     27  C   LIG    1        0.757  31.000  62.225  0.00  0.00    +0.178 C 
ATOM     28  C   LIG    1        1.200  30.130  63.402  0.00  0.00    +0.171 C 
ATOM     29  C   LIG    1       -0.007  29.630  64.185  0.00  0.00    +0.197 C 
ATOM     36  O   LIG    1       -0.888  28.897  63.337  0.00  0.00    -0.346 OA
BRANCH  28  30
ATOM     30  O   LIG    1        2.068  30.870  64.249  0.00  0.00    -0.387 OA
ATOM     31  H   LIG    1        1.606  31.688  64.502  0.00  0.00    +0.210 HD
ENDBRANCH  28  30
BRANCH  27  32
ATOM     32  O   LIG    1        0.193  32.213  62.721  0.00  0.00    -0.386 OA
ATOM     33  H   LIG    1        0.197  32.162  63.692  0.00  0.00    +0.210 HD
ENDBRANCH  27  32
BRANCH  26  34
ATOM     34  O   LIG    1        0.348  29.185  60.686  0.00  0.00    -0.384 OA
ATOM     35  H   LIG    1        0.969  28.749  61.292  0.00  0.00    +0.210 HD
ENDBRANCH  26  34
ENDBRANCH  24  25
ENDBRANCH  23  24
ENDBRANCH  22  23
TORSDOF 13
ENDMDL
MODEL 3
REMARK VINA RESULT:      -7.4      2.188      3.706
REMARK  Name = 9823887
REMARK                            x       y       z     vdW  Elec       q    Type
REMARK                         _______ _______ _______ _____ _____    ______ ____
ROOT
ATOM      1  O   LIG    1       -1.606  32.039  62.421  0.00  0.00    -0.341 OA
ATOM      2  C   LIG    1       -2.737  32.744  61.915  0.00  0.00    +0.282 C 
ATOM      3  C   LIG    1       -2.414  34.229  61.750  0.00  0.00    +0.201 C 
ATOM      4  C   LIG    1       -1.160  34.435  60.901  0.00  0.00    +0.179 C 
ATOM      5  C   LIG    1       -0.015  33.543  61.378  0.00  0.00    +0.177 C 
ATOM     22  C   LIG    1       -0.485  32.094  61.537  0.00  0.00    +0.178 C 
ENDROOT
BRANCH   5   6
ATOM      6  O   LIG    1        1.049  33.593  60.431  0.00  0.00    -0.386 OA
ATOM      7  H   LIG    1        0.738  33.173  59.610  0.00  0.00    +0.210 HD
ENDBRANCH   5   6
BRANCH   4   8
ATOM      8  O   LIG    1       -0.733  35.795  61.006  0.00  0.00    -0.386 OA
ATOM      9  H   LIG    1        0.230  35.788  61.135  0.00  0.00    +0.210 HD
ENDBRANCH   4   8
BRANCH   3  10
ATOM     10  O   LIG    1       -3.526  34.861  61.116  0.00  0.00    -0.384 OA
ATOM     11  H   LIG    1       -4.224  34.195  60.998  0.00  0.00    +0.210 HD
ENDBRANCH   3  10
BRANCH   2  12
ATOM     12  O   LIG    1       -3.826  32.628  62.829  0.00  0.00    -0.345 OA
BRANCH  12  13
ATOM     13  C   LIG    1       -4.625  31.492  62.540  0.00  0.00    +0.190 C 
BRANCH  13  14
ATOM     14  C   LIG    1       -5.822  31.932  61.761  0.00  0.00    +0.001 C 
ATOM     15  C   LIG    1       -6.568  31.096  61.022  0.00  0.00    +0.006 C 
BRANCH  15  16
ATOM     16  C   LIG    1       -7.763  31.480  60.250  0.00  0.00    -0.025 A 
ATOM     17  C   LIG    1       -8.711  32.305  60.833  0.00  0.00    +0.008 A 
ATOM     18  C   LIG    1       -9.842  32.669  60.102  0.00  0.00    +0.001 A 
ATOM     19  C   LIG    1      -10.010  32.202  58.798  0.00  0.00    +0.000 A 
ATOM     20  C   LIG    1       -9.047  31.372  58.225  0.00  0.00    +0.001 A 
ATOM     21  C   LIG    1       -7.916  31.008  58.956  0.00  0.00    +0.008 A 
ENDBRANCH  15  16
ENDBRANCH  13  14
ENDBRANCH  12  13
ENDBRANCH   2  12
BRANCH  22  23
ATOM     23  C   LIG    1        0.609  31.206  62.123  0.00  0.00    +0.197 C 
BRANCH  23  24
ATOM     24  O   LIG    1        1.216  31.893  63.202  0.00  0.00    -0.346 OA
BRANCH  24  25
ATOM     25  C   LIG    1        2.625  31.687  63.232  0.00  0.00    +0.281 C 
ATOM     26  C   LIG    1        3.336  32.995  63.612  0.00  0.00    +0.201 C 
ATOM     27  C   LIG    1        3.182  33.324  65.101  0.00  0.00    +0.178 C 
ATOM     28  C   LIG    1        3.528  32.099  65.949  0.00  0.00    +0.171 C 
ATOM     29  C   LIG    1        2.737  30.883  65.484  0.00  0.00    +0.197 C 
ATOM     36  O   LIG    1        2.992  30.615  64.107  0.00  0.00    -0.346 OA
BRANCH  28  30
ATOM     30  O   LIG    1        3.262  32.369  67.318  0.00  0.00    -0.387 OA
ATOM     31  H   LIG    1        2.591  31.732  67.619  0.00  0.00    +0.210 HD
ENDBRANCH  28  30
BRANCH  27  32
ATOM     32  O   LIG    1        1.836  33.716  65.367  0.00  0.00    -0.386 OA
ATOM     33  H   LIG    1        1.769  33.907  66.318  0.00  0.00    +0.210 HD
ENDBRANCH  27  32
BRANCH  26  34
ATOM     34  O   LIG    1        4.720  32.851  63.301  0.00  0.00    -0.384 OA
ATOM     35  H   LIG    1        4.870  31.946  62.981  0.00  0.00    +0.210 HD
ENDBRANCH  26  34
ENDBRANCH  24  25
ENDBRANCH  23  24
ENDBRANCH  22  23
TORSDOF 13
ENDMDL
MODEL 4
REMARK VINA RESULT:      -7.1      3.396     10.752
REMARK  Name = 9823887
REMARK                            x       y       z     vdW  Elec       q    Type
REMARK                         _______ _______ _______ _____ _____    ______ ____
ROOT
ATOM      1  O   LIG    1        3.472  31.306  65.973  0.00  0.00    -0.341 OA
ATOM      2  C   LIG    1        3.918  31.787  67.239  0.00  0.00    +0.282 C 
ATOM      3  C   LIG    1        5.133  32.699  67.067  0.00  0.00    +0.201 C 
ATOM      4  C   LIG    1        4.849  33.824  66.074  0.00  0.00    +0.179 C 
ATOM      5  C   LIG    1        4.223  33.284  64.789  0.00  0.00    +0.177 C 
ATOM     22  C   LIG    1        3.045  32.358  65.106  0.00  0.00    +0.178 C 
ENDROOT
BRANCH   5   6
ATOM      6  O   LIG    1        3.765  34.373  63.992  0.00  0.00    -0.386 OA
ATOM      7  H   LIG    1        4.113  34.252  63.091  0.00  0.00    +0.210 HD
ENDBRANCH   5   6
BRANCH   4   8
ATOM      8  O   LIG    1        6.073  34.474  65.728  0.00  0.00    -0.386 OA
ATOM      9  H   LIG    1        6.784  34.042  66.232  0.00  0.00    +0.210 HD
ENDBRANCH   4   8
BRANCH   3  10
ATOM     10  O   LIG    1        5.454  33.259  68.340  0.00  0.00    -0.384 OA
ATOM     11  H   LIG    1        5.892  32.573  68.870  0.00  0.00    +0.210 HD
ENDBRANCH   3  10
BRANCH   2  12
ATOM     12  O   LIG    1        4.303  30.689  68.063  0.00  0.00    -0.345 OA
BRANCH  12  13
ATOM     13  C   LIG    1        4.720  29.579  67.284  0.00  0.00    +0.190 C 
BRANCH  13  14
ATOM     14  C   LIG    1        6.105  29.195  67.693  0.00  0.00    +0.001 C 
ATOM     15  C   LIG    1        6.623  29.479  68.898  0.00  0.00    +0.006 C 
BRANCH  15  16
ATOM     16  C   LIG    1        7.976  29.109  69.350  0.00  0.00    -0.025 A 
ATOM     17  C   LIG    1        9.016  30.011  69.190  0.00  0.00    +0.008 A 
ATOM     18  C   LIG    1       10.295  29.660  69.618  0.00  0.00    +0.001 A 
ATOM     19  C   LIG    1       10.520  28.413  70.199  0.00  0.00    +0.000 A 
ATOM     20  C   LIG    1        9.464  27.515  70.353  0.00  0.00    +0.001 A 
ATOM     21  C   LIG    1        8.183  27.866  69.925  0.00  0.00    +0.008 A 
ENDBRANCH  15  16
ENDBRANCH  13  14
ENDBRANCH  12  13
ENDBRANCH   2  12
BRANCH  22  23
ATOM     23  C   LIG    1        2.477  31.714  63.845  0.00  0.00    +0.197 C 
BRANCH  23  24
ATOM     24  O   LIG    1        1.822  32.713  63.085  0.00  0.00    -0.346 OA
BRANCH  24  25
ATOM     25  C   LIG    1        1.335  32.202  61.848  0.00  0.00    +0.281 C 
ATOM     26  C   LIG    1       -0.058  31.586  62.050  0.00  0.00    +0.201 C 
ATOM     27  C   LIG    1       -1.141  32.656  62.227  0.00  0.00    +0.178 C 
ATOM     28  C   LIG    1       -1.024  33.711  61.126  0.00  0.00    +0.171 C 
ATOM     29  C   LIG    1        0.397  34.255  61.052  0.00  0.00    +0.197 C 
ATOM     36  O   LIG    1        1.327  33.200  60.821  0.00  0.00    -0.346 OA
BRANCH  28  30
ATOM     30  O   LIG    1       -1.946  34.765  61.368  0.00  0.00    -0.387 OA
ATOM     31  H   LIG    1       -1.491  35.603  61.179  0.00  0.00    +0.210 HD
ENDBRANCH  28  30
BRANCH  27  32
ATOM     32  O   LIG    1       -0.988  33.283  63.499  0.00  0.00    -0.386 OA
ATOM     33  H   LIG    1       -0.730  34.208  63.341  0.00  0.00    +0.210 HD
ENDBRANCH  27  32
BRANCH  26  34
ATOM     34  O   LIG    1       -0.360  30.795  60.903  0.00  0.00    -0.384 OA
ATOM     35  H   LIG    1       -1.167  31.145  60.491  0.00  0.00    +0.210 HD
ENDBRANCH  26  34
ENDBRANCH  24  25
ENDBRANCH  23  24
ENDBRANCH  22  23
TORSDOF 13
ENDMDL
MODEL 5
REMARK VINA RESULT:      -6.9      1.579      2.765
REMARK  Name = 9823887
REMARK                            x       y       z     vdW  Elec       q    Type
REMARK                         _______ _______ _______ _____ _____    ______ ____
ROOT
ATOM      1  O   LIG    1       -0.512  31.179  63.369  0.00  0.00    -0.341 OA
ATOM      2  C   LIG    1       -1.325  31.291  62.204  0.00  0.00    +0.282 C 
ATOM      3  C   LIG    1       -1.252  32.708  61.634  0.00  0.00    +0.201 C 
ATOM      4  C   LIG    1        0.194  33.136  61.390  0.00  0.00    +0.179 C 
ATOM      5  C   LIG    1        1.069  32.852  62.610  0.00  0.00    +0.177 C 
ATOM     22  C   LIG    1        0.871  31.415  63.098  0.00  0.00    +0.178 C 
ENDROOT
BRANCH   5   6
ATOM      6  O   LIG    1        2.438  33.048  62.264  0.00  0.00    -0.386 OA
ATOM      7  H   LIG    1        2.788  32.202  61.935  0.00  0.00    +0.210 HD
ENDBRANCH   5   6
BRANCH   4   8
ATOM      8  O   LIG    1        0.237  34.541  61.132  0.00  0.00    -0.386 OA
ATOM      9  H   LIG    1        0.156  34.663  60.171  0.00  0.00    +0.210 HD
ENDBRANCH   4   8
BRANCH   3  10
ATOM     10  O   LIG    1       -1.969  32.730  60.400  0.00  0.00    -0.384 OA
ATOM     11  H   LIG    1       -1.389  32.370  59.708  0.00  0.00    +0.210 HD
ENDBRANCH   3  10
BRANCH   2  12
ATOM     12  O   LIG    1       -2.685  31.019  62.537  0.00  0.00    -0.345 OA
BRANCH  12  13
ATOM     13  C   LIG    1       -3.051  31.639  63.759  0.00  0.00    +0.190 C 
BRANCH  13  14
ATOM     14  C   LIG    1       -4.455  32.140  63.644  0.00  0.00    +0.001 C 
ATOM     15  C   LIG    1       -4.987  32.582  62.494  0.00  0.00    +0.006 C 
BRANCH  15  16
ATOM     16  C   LIG    1       -6.367  33.071  62.330  0.00  0.00    -0.025 A 
ATOM     17  C   LIG    1       -7.307  32.257  61.716  0.00  0.00    +0.008 A 
ATOM     18  C   LIG    1       -8.613  32.720  61.561  0.00  0.00    +0.001 A 
ATOM     19  C   LIG    1       -8.963  33.990  62.020  0.00  0.00    +0.000 A 
ATOM     20  C   LIG    1       -8.007  34.797  62.635  0.00  0.00    +0.001 A 
ATOM     21  C   LIG    1       -6.700  34.334  62.791  0.00  0.00    +0.008 A 
ENDBRANCH  15  16
ENDBRANCH  13  14
ENDBRANCH  12  13
ENDBRANCH   2  12
BRANCH  22  23
ATOM     23  C   LIG    1        1.646  31.143  64.384  0.00  0.00    +0.197 C 
BRANCH  23  24
ATOM     24  O   LIG    1        1.984  32.384  64.977  0.00  0.00    -0.346 OA
BRANCH  24  25
ATOM     25  C   LIG    1        2.629  32.210  66.234  0.00  0.00    +0.281 C 
ATOM     26  C   LIG    1        3.984  31.514  66.035  0.00  0.00    +0.201 C 
ATOM     27  C   LIG    1        5.034  32.456  65.436  0.00  0.00    +0.178 C 
ATOM     28  C   LIG    1        5.062  33.774  66.213  0.00  0.00    +0.171 C 
ATOM     29  C   LIG    1        3.663  34.368  66.315  0.00  0.00    +0.197 C 
ATOM     36  O   LIG    1        2.771  33.448  66.940  0.00  0.00    -0.346 OA
BRANCH  28  30
ATOM     30  O   LIG    1        5.944  34.689  65.578  0.00  0.00    -0.387 OA
ATOM     31  H   LIG    1        5.653  34.786  64.655  0.00  0.00    +0.210 HD
ENDBRANCH  28  30
BRANCH  27  32
ATOM     32  O   LIG    1        4.715  32.721  64.071  0.00  0.00    -0.386 OA
ATOM     33  H   LIG    1        5.333  33.402  63.753  0.00  0.00    +0.210 HD
ENDBRANCH  27  32
BRANCH  26  34
ATOM     34  O   LIG    1        4.434  31.053  67.307  0.00  0.00    -0.384 OA
ATOM     35  H   LIG    1        4.803  31.807  67.795  0.00  0.00    +0.210 HD
ENDBRANCH  26  34
ENDBRANCH  24  25
ENDBRANCH  23  24
ENDBRANCH  22  23
TORSDOF 13
ENDMDL
MODEL 6
REMARK VINA RESULT:      -6.9      1.844      2.604
REMARK  Name = 9823887
REMARK                            x       y       z     vdW  Elec       q    Type
REMARK                         _______ _______ _______ _____ _____    ______ ____
ROOT
ATOM      1  O   LIG    1       -0.949  32.409  62.830  0.00  0.00    -0.341 OA
ATOM      2  C   LIG    1       -2.136  31.705  62.474  0.00  0.00    +0.282 C 
ATOM      3  C   LIG    1       -1.859  30.733  61.327  0.00  0.00    +0.201 C 
ATOM      4  C   LIG    1       -0.694  29.800  61.657  0.00  0.00    +0.179 C 
ATOM      5  C   LIG    1        0.508  30.581  62.187  0.00  0.00    +0.177 C 
ATOM     22  C   LIG    1        0.083  31.541  63.301  0.00  0.00    +0.178 C 
ENDROOT
BRANCH   5   6
ATOM      6  O   LIG    1        1.477  29.668  62.695  0.00  0.00    -0.386 OA
ATOM      7  H   LIG    1        2.336  29.888  62.293  0.00  0.00    +0.210 HD
ENDBRANCH   5   6
BRANCH   4   8
ATOM      8  O   LIG    1       -0.286  29.112  60.473  0.00  0.00    -0.386 OA
ATOM      9  H   LIG    1       -0.108  28.189  60.720  0.00  0.00    +0.210 HD
ENDBRANCH   4   8
BRANCH   3  10
ATOM     10  O   LIG    1       -3.037  29.959  61.102  0.00  0.00    -0.384 OA
ATOM     11  H   LIG    1       -3.653  30.495  60.575  0.00  0.00    +0.210 HD
ENDBRANCH   3  10
BRANCH   2  12
ATOM     12  O   LIG    1       -3.132  32.628  62.039  0.00  0.00    -0.345 OA
BRANCH  12  13
ATOM     13  C   LIG    1       -4.313  32.520  62.816  0.00  0.00    +0.190 C 
BRANCH  13  14
ATOM     14  C   LIG    1       -5.498  32.637  61.912  0.00  0.00    +0.001 C 
ATOM     15  C   LIG    1       -6.301  31.605  61.612  0.00  0.00    +0.006 C 
BRANCH  15  16
ATOM     16  C   LIG    1       -7.486  31.677  60.739  0.00  0.00    -0.025 A 
ATOM     17  C   LIG    1       -8.591  32.405  61.152  0.00  0.00    +0.008 A 
ATOM     18  C   LIG    1       -9.712  32.472  60.325  0.00  0.00    +0.001 A 
ATOM     19  C   LIG    1       -9.715  31.811  59.097  0.00  0.00    +0.000 A 
ATOM     20  C   LIG    1       -8.596  31.082  58.695  0.00  0.00    +0.001 A 
ATOM     21  C   LIG    1       -7.474  31.014  59.522  0.00  0.00    +0.008 A 
ENDBRANCH  15  16
ENDBRANCH  13  14
ENDBRANCH  12  13
ENDBRANCH   2  12
BRANCH  22  23
ATOM     23  C   LIG    1        1.244  32.415  63.767  0.00  0.00    +0.197 C 
BRANCH  23  24
ATOM     24  O   LIG    1        1.840  31.808  64.899  0.00  0.00    -0.346 OA
BRANCH  24  25
ATOM     25  C   LIG    1        3.261  31.872  64.846  0.00  0.00    +0.281 C 
ATOM     26  C   LIG    1        3.725  33.326  65.027  0.00  0.00    +0.201 C 
ATOM     27  C   LIG    1        3.589  33.798  66.479  0.00  0.00    +0.178 C 
ATOM     28  C   LIG    1        4.209  32.770  67.427  0.00  0.00    +0.171 C 
ATOM     29  C   LIG    1        3.645  31.381  67.158  0.00  0.00    +0.197 C 
ATOM     36  O   LIG    1        3.874  31.000  65.803  0.00  0.00    -0.346 OA
BRANCH  28  30
ATOM     30  O   LIG    1        3.968  33.151  68.775  0.00  0.00    -0.387 OA
ATOM     31  H   LIG    1        4.668  32.754  69.322  0.00  0.00    +0.210 HD
ENDBRANCH  28  30
BRANCH  27  32
ATOM     32  O   LIG    1        2.209  33.963  66.800  0.00  0.00    -0.386 OA
ATOM     33  H   LIG    1        1.934  34.836  66.472  0.00  0.00    +0.210 HD
ENDBRANCH  27  32
BRANCH  26  34
ATOM     34  O   LIG    1        5.092  33.404  64.632  0.00  0.00    -0.384 OA
ATOM     35  H   LIG    1        5.326  34.340  64.515  0.00  0.00    +0.210 HD
ENDBRANCH  26  34
ENDBRANCH  24  25
ENDBRANCH  23  24
ENDBRANCH  22  23
TORSDOF 13
ENDMDL
MODEL 7
REMARK VINA RESULT:      -6.9      3.263      5.225
REMARK  Name = 9823887
REMARK                            x       y       z     vdW  Elec       q    Type
REMARK                         _______ _______ _______ _____ _____    ______ ____
ROOT
ATOM      1  O   LIG    1       -0.734  31.907  61.451  0.00  0.00    -0.341 OA
ATOM      2  C   LIG    1       -2.133  31.886  61.178  0.00  0.00    +0.282 C 
ATOM      3  C   LIG    1       -2.820  33.099  61.807  0.00  0.00    +0.201 C 
ATOM      4  C   LIG    1       -2.152  34.404  61.374  0.00  0.00    +0.179 C 
ATOM      5  C   LIG    1       -0.634  34.328  61.533  0.00  0.00    +0.177 C 
ATOM     22  C   LIG    1       -0.083  33.050  60.894  0.00  0.00    +0.178 C 
ENDROOT
BRANCH   5   6
ATOM      6  O   LIG    1       -0.036  35.462  60.910  0.00  0.00    -0.386 OA
ATOM      7  H   LIG    1        0.928  35.334  60.917  0.00  0.00    +0.210 HD
ENDBRANCH   5   6
BRANCH   4   8
ATOM      8  O   LIG    1       -2.628  35.475  62.190  0.00  0.00    -0.386 OA
ATOM      9  H   LIG    1       -3.496  35.211  62.540  0.00  0.00    +0.210 HD
ENDBRANCH   4   8
BRANCH   3  10
ATOM     10  O   LIG    1       -4.185  33.105  61.391  0.00  0.00    -0.384 OA
ATOM     11  H   LIG    1       -4.239  33.569  60.539  0.00  0.00    +0.210 HD
ENDBRANCH   3  10
BRANCH   2  12
ATOM     12  O   LIG    1       -2.716  30.711  61.737  0.00  0.00    -0.345 OA
BRANCH  12  13
ATOM     13  C   LIG    1       -2.115  29.537  61.215  0.00  0.00    +0.190 C 
BRANCH  13  14
ATOM     14  C   LIG    1       -2.122  28.481  62.272  0.00  0.00    +0.001 C 
ATOM     15  C   LIG    1       -2.372  28.735  63.566  0.00  0.00    +0.006 C 
BRANCH  15  16
ATOM     16  C   LIG    1       -2.404  27.726  64.639  0.00  0.00    -0.025 A 
ATOM     17  C   LIG    1       -1.245  27.036  64.957  0.00  0.00    +0.008 A 
ATOM     18  C   LIG    1       -1.277  26.081  65.973  0.00  0.00    +0.001 A 
ATOM     19  C   LIG    1       -2.466  25.827  66.657  0.00  0.00    +0.000 A 
ATOM     20  C   LIG    1       -3.624  26.529  66.325  0.00  0.00    +0.001 A 
ATOM     21  C   LIG    1       -3.593  27.484  65.309  0.00  0.00    +0.008 A 
ENDBRANCH  15  16
ENDBRANCH  13  14
ENDBRANCH  12  13
ENDBRANCH   2  12
BRANCH  22  23
ATOM     23  C   LIG    1        1.414  32.894  61.141  0.00  0.00    +0.197 C 
BRANCH  23  24
ATOM     24  O   LIG    1        1.684  33.219  62.493  0.00  0.00    -0.346 OA
BRANCH  24  25
ATOM     25  C   LIG    1        2.949  32.719  62.913  0.00  0.00    +0.281 C 
ATOM     26  C   LIG    1        3.417  33.471  64.169  0.00  0.00    +0.201 C 
ATOM     27  C   LIG    1        2.642  33.043  65.420  0.00  0.00    +0.178 C 
ATOM     28  C   LIG    1        2.610  31.517  65.523  0.00  0.00    +0.171 C 
ATOM     29  C   LIG    1        2.105  30.902  64.224  0.00  0.00    +0.197 C 
ATOM     36  O   LIG    1        2.923  31.303  63.127  0.00  0.00    -0.346 OA
BRANCH  28  30
ATOM     30  O   LIG    1        1.786  31.125  66.611  0.00  0.00    -0.387 OA
ATOM     31  H   LIG    1        2.357  30.700  67.274  0.00  0.00    +0.210 HD
ENDBRANCH  28  30
BRANCH  27  32
ATOM     32  O   LIG    1        1.307  33.539  65.347  0.00  0.00    -0.386 OA
ATOM     33  H   LIG    1        1.145  34.063  66.151  0.00  0.00    +0.210 HD
ENDBRANCH  27  32
BRANCH  26  34
ATOM     34  O   LIG    1        4.803  33.198  64.355  0.00  0.00    -0.384 OA
ATOM     35  H   LIG    1        5.036  32.414  63.830  0.00  0.00    +0.210 HD
ENDBRANCH  26  34
ENDBRANCH  24  25
ENDBRANCH  23  24
ENDBRANCH  22  23
TORSDOF 13
ENDMDL
MODEL 8
REMARK VINA RESULT:      -6.9      3.228      9.438
REMARK  Name = 9823887
REMARK                            x       y       z     vdW  Elec       q    Type
REMARK                         _______ _______ _______ _____ _____    ______ ____
ROOT
ATOM      1  O   LIG    1       -2.171  32.059  62.213  0.00  0.00    -0.341 OA
ATOM      2  C   LIG    1       -0.917  32.582  61.782  0.00  0.00    +0.282 C 
ATOM      3  C   LIG    1       -1.126  33.757  60.826  0.00  0.00    +0.201 C 
ATOM      4  C   LIG    1       -2.030  34.823  61.444  0.00  0.00    +0.179 C 
ATOM      5  C   LIG    1       -3.293  34.201  62.039  0.00  0.00    +0.177 C 
ATOM     22  C   LIG    1       -2.942  33.016  62.942  0.00  0.00    +0.178 C 
ENDROOT
BRANCH   5   6
ATOM      6  O   LIG    1       -3.990  35.184  62.800  0.00  0.00    -0.386 OA
ATOM      7  H   LIG    1       -4.940  34.983  62.751  0.00  0.00    +0.210 HD
ENDBRANCH   5   6
BRANCH   4   8
ATOM      8  O   LIG    1       -2.428  35.752  60.435  0.00  0.00    -0.386 OA
ATOM      9  H   LIG    1       -2.336  36.645  60.810  0.00  0.00    +0.210 HD
ENDBRANCH   4   8
BRANCH   3  10
ATOM     10  O   LIG    1        0.149  34.327  60.534  0.00  0.00    -0.384 OA
ATOM     11  H   LIG    1        0.095  34.757  59.664  0.00  0.00    +0.210 HD
ENDBRANCH   3  10
BRANCH   2  12
ATOM     12  O   LIG    1       -0.188  31.572  61.086  0.00  0.00    -0.345 OA
BRANCH  12  13
ATOM     13  C   LIG    1        0.407  30.651  61.986  0.00  0.00    +0.190 C 
BRANCH  13  14
ATOM     14  C   LIG    1        1.191  31.412  63.006  0.00  0.00    +0.001 C 
ATOM     15  C   LIG    1        2.504  31.228  63.214  0.00  0.00    +0.006 C 
BRANCH  15  16
ATOM     16  C   LIG    1        3.320  31.963  64.196  0.00  0.00    -0.025 A 
ATOM     17  C   LIG    1        4.057  31.256  65.132  0.00  0.00    +0.008 A 
ATOM     18  C   LIG    1        4.829  31.952  66.061  0.00  0.00    +0.001 A 
ATOM     19  C   LIG    1        4.853  33.347  66.044  0.00  0.00    +0.000 A 
ATOM     20  C   LIG    1        4.106  34.045  65.096  0.00  0.00    +0.001 A 
ATOM     21  C   LIG    1        3.334  33.349  64.166  0.00  0.00    +0.008 A 
ENDBRANCH  15  16
ENDBRANCH  13  14
ENDBRANCH  12  13
ENDBRANCH   2  12
BRANCH  22  23
ATOM     23  C   LIG    1       -4.192  32.307  63.454  0.00  0.00    +0.197 C 
BRANCH  23  24
ATOM     24  O   LIG    1       -5.329  32.935  62.891  0.00  0.00    -0.346 OA
BRANCH  24  25
ATOM     25  C   LIG    1       -6.505  32.679  63.652  0.00  0.00    +0.281 C 
ATOM     26  C   LIG    1       -6.991  33.977  64.316  0.00  0.00    +0.201 C 
ATOM     27  C   LIG    1       -7.646  34.928  63.309  0.00  0.00    +0.178 C 
ATOM     28  C   LIG    1       -8.678  34.176  62.468  0.00  0.00    +0.171 C 
ATOM     29  C   LIG    1       -8.060  32.928  61.850  0.00  0.00    +0.197 C 
ATOM     36  O   LIG    1       -7.535  32.073  62.862  0.00  0.00    -0.346 OA
BRANCH  28  30
ATOM     30  O   LIG    1       -9.189  35.030  61.454  0.00  0.00    -0.387 OA
ATOM     31  H   LIG    1       -8.447  35.277  60.876  0.00  0.00    +0.210 HD
ENDBRANCH  28  30
BRANCH  27  32
ATOM     32  O   LIG    1       -6.648  35.477  62.451  0.00  0.00    -0.386 OA
ATOM     33  H   LIG    1       -5.786  35.350  62.885  0.00  0.00    +0.210 HD
ENDBRANCH  27  32
BRANCH  26  34
ATOM     34  O   LIG    1       -7.939  33.629  65.322  0.00  0.00    -0.384 OA
ATOM     35  H   LIG    1       -8.086  34.405  65.888  0.00  0.00    +0.210 HD
ENDBRANCH  26  34
ENDBRANCH  24  25
ENDBRANCH  23  24
ENDBRANCH  22  23
TORSDOF 13
ENDMDL
MODEL 9
REMARK VINA RESULT:      -6.9      3.204      6.102
REMARK  Name = 9823887
REMARK                            x       y       z     vdW  Elec       q    Type
REMARK                         _______ _______ _______ _____ _____    ______ ____
ROOT
ATOM      1  O   LIG    1        3.706  32.093  65.531  0.00  0.00    -0.341 OA
ATOM      2  C   LIG    1        4.346  33.175  64.858  0.00  0.00    +0.282 C 
ATOM      3  C   LIG    1        3.936  34.510  65.481  0.00  0.00    +0.201 C 
ATOM      4  C   LIG    1        4.184  34.521  66.989  0.00  0.00    +0.179 C 
ATOM      5  C   LIG    1        3.621  33.264  67.652  0.00  0.00    +0.177 C 
ATOM     22  C   LIG    1        4.077  32.007  66.908  0.00  0.00    +0.178 C 
ENDROOT
BRANCH   5   6
ATOM      6  O   LIG    1        4.070  33.202  69.003  0.00  0.00    -0.386 OA
ATOM      7  H   LIG    1        3.299  33.338  69.581  0.00  0.00    +0.210 HD
ENDBRANCH   5   6
BRANCH   4   8
ATOM      8  O   LIG    1        3.536  35.654  67.569  0.00  0.00    -0.386 OA
ATOM      9  H   LIG    1        4.084  35.952  68.315  0.00  0.00    +0.210 HD
ENDBRANCH   4   8
BRANCH   3  10
ATOM     10  O   LIG    1        4.703  35.544  64.866  0.00  0.00    -0.384 OA
ATOM     11  H   LIG    1        5.589  35.191  64.679  0.00  0.00    +0.210 HD
ENDBRANCH   3  10
BRANCH   2  12
ATOM     12  O   LIG    1        3.954  33.189  63.487  0.00  0.00    -0.345 OA
BRANCH  12  13
ATOM     13  C   LIG    1        2.946  32.226  63.227  0.00  0.00    +0.190 C 
BRANCH  13  14
ATOM     14  C   LIG    1        1.672  32.938  62.903  0.00  0.00    +0.001 C 
ATOM     15  C   LIG    1        1.272  33.199  61.649  0.00  0.00    +0.006 C 
BRANCH  15  16
ATOM     16  C   LIG    1        0.020  33.883  61.282  0.00  0.00    -0.025 A 
ATOM     17  C   LIG    1        0.054  35.227  60.944  0.00  0.00    +0.008 A 
ATOM     18  C   LIG    1       -1.131  35.873  60.596  0.00  0.00    +0.001 A 
ATOM     19  C   LIG    1       -2.335  35.170  60.592  0.00  0.00    +0.000 A 
ATOM     20  C   LIG    1       -2.354  33.818  60.934  0.00  0.00    +0.001 A 
ATOM     21  C   LIG    1       -1.168  33.170  61.281  0.00  0.00    +0.008 A 
ENDBRANCH  15  16
ENDBRANCH  13  14
ENDBRANCH  12  13
ENDBRANCH   2  12
BRANCH  22  23
ATOM     23  C   LIG    1        3.435  30.747  67.480  0.00  0.00    +0.197 C 
BRANCH  23  24
ATOM     24  O   LIG    1        4.032  30.466  68.733  0.00  0.00    -0.346 OA
BRANCH  24  25
ATOM     25  C   LIG    1        4.840  29.295  68.682  0.00  0.00    +0.281 C 
ATOM     26  C   LIG    1        6.246  29.653  68.176  0.00  0.00    +0.201 C 
ATOM     27  C   LIG    1        7.074  30.382  69.239  0.00  0.00    +0.178 C 
ATOM     28  C   LIG    1        7.009  29.625  70.567  0.00  0.00    +0.171 C 
ATOM     29  C   LIG    1        5.562  29.359  70.963  0.00  0.00    +0.197 C 
ATOM     36  O   LIG    1        4.890  28.622  69.944  0.00  0.00    -0.346 OA
BRANCH  28  30
ATOM     30  O   LIG    1        7.671  30.371  71.580  0.00  0.00    -0.387 OA
ATOM     31  H   LIG    1        8.613  30.132  71.552  0.00  0.00    +0.210 HD
ENDBRANCH  28  30
BRANCH  27  32
ATOM     32  O   LIG    1        6.560  31.700  69.423  0.00  0.00    -0.386 OA
ATOM     33  H   LIG    1        5.614  31.680  69.200  0.00  0.00    +0.210 HD
ENDBRANCH  27  32
BRANCH  26  34
ATOM     34  O   LIG    1        6.905  28.442  67.813  0.00  0.00    -0.384 OA
ATOM     35  H   LIG    1        7.713  28.359  68.347  0.00  0.00    +0.210 HD
ENDBRANCH  26  34
ENDBRANCH  24  25
ENDBRANCH  23  24
ENDBRANCH  22  23
TORSDOF 13
ENDMDL
