MODEL 1
REMARK VINA RESULT:      -7.3      0.000      0.000
REMARK  Name = 9823887
REMARK                            x       y       z     vdW  Elec       q    Type
REMARK                         _______ _______ _______ _____ _____    ______ ____
ROOT
ATOM      1  O   LIG    1       13.041 143.467  28.563  0.00  0.00    -0.341 OA
ATOM      2  C   LIG    1       14.274 143.154  27.918  0.00  0.00    +0.282 C 
ATOM      3  C   LIG    1       14.868 144.402  27.265  0.00  0.00    +0.201 C 
ATOM      4  C   LIG    1       14.999 145.547  28.268  0.00  0.00    +0.179 C 
ATOM      5  C   LIG    1       13.704 145.746  29.053  0.00  0.00    +0.177 C 
ATOM     22  C   LIG    1       13.200 144.416  29.618  0.00  0.00    +0.178 C 
ENDROOT
BRANCH   5   6
ATOM      6  O   LIG    1       13.936 146.657  30.125  0.00  0.00    -0.386 OA
ATOM      7  H   LIG    1       13.696 146.209  30.955  0.00  0.00    +0.210 HD
ENDBRANCH   5   6
BRANCH   4   8
ATOM      8  O   LIG    1       15.285 146.760  27.570  0.00  0.00    -0.386 OA
ATOM      9  H   LIG    1       15.685 146.519  26.718  0.00  0.00    +0.210 HD
ENDBRANCH   4   8
BRANCH   3  10
ATOM     10  O   LIG    1       16.159 144.067  26.755  0.00  0.00    -0.384 OA
ATOM     11  H   LIG    1       16.192 143.105  26.626  0.00  0.00    +0.210 HD
ENDBRANCH   3  10
BRANCH   2  12
ATOM     12  O   LIG    1       14.051 142.185  26.896  0.00  0.00    -0.345 OA
BRANCH  12  13
ATOM     13  C   LIG    1       12.895 141.407  27.164  0.00  0.00    +0.190 C 
BRANCH  13  14
ATOM     14  C   LIG    1       13.270 139.961  27.138  0.00  0.00    +0.001 C 
ATOM     15  C   LIG    1       14.526 139.528  26.944  0.00  0.00    +0.006 C 
BRANCH  15  16
ATOM     16  C   LIG    1       14.944 138.116  26.925  0.00  0.00    -0.025 A 
ATOM     17  C   LIG    1       15.369 137.518  28.101  0.00  0.00    +0.008 A 
ATOM     18  C   LIG    1       15.765 136.181  28.083  0.00  0.00    +0.001 A 
ATOM     19  C   LIG    1       15.733 135.460  26.890  0.00  0.00    +0.000 A 
ATOM     20  C   LIG    1       15.304 136.075  25.714  0.00  0.00    +0.001 A 
ATOM     21  C   LIG    1       14.907 137.412  25.732  0.00  0.00    +0.008 A 
ENDBRANCH  15  16
ENDBRANCH  13  14
ENDBRANCH  12  13
ENDBRANCH   2  12
BRANCH  22  23
ATOM     23  C   LIG    1       11.847 144.570  30.307  0.00  0.00    +0.197 C 
BRANCH  23  24
ATOM     24  O   LIG    1       10.953 145.198  29.407  0.00  0.00    -0.346 OA
BRANCH  24  25
ATOM     25  C   LIG    1       10.234 146.258  30.030  0.00  0.00    +0.281 C 
ATOM     26  C   LIG    1        9.909 147.347  28.996  0.00  0.00    +0.201 C 
ATOM     27  C   LIG    1        8.788 146.921  28.043  0.00  0.00    +0.178 C 
ATOM     28  C   LIG    1        7.601 146.372  28.837  0.00  0.00    +0.171 C 
ATOM     29  C   LIG    1        8.058 145.286  29.803  0.00  0.00    +0.197 C 
ATOM     36  O   LIG    1        9.053 145.790  30.691  0.00  0.00    -0.346 OA
BRANCH  28  30
ATOM     30  O   LIG    1        6.619 145.862  27.946  0.00  0.00    -0.387 OA
ATOM     31  H   LIG    1        7.059 145.228  27.355  0.00  0.00    +0.210 HD
ENDBRANCH  28  30
BRANCH  27  32
ATOM     32  O   LIG    1        9.271 145.911  27.158  0.00  0.00    -0.386 OA
ATOM     33  H   LIG    1        8.710 145.926  26.363  0.00  0.00    +0.210 HD
ENDBRANCH  27  32
BRANCH  26  34
ATOM     34  O   LIG    1        9.509 148.519  29.702  0.00  0.00    -0.384 OA
ATOM     35  H   LIG    1        9.235 149.190  29.055  0.00  0.00    +0.210 HD
ENDBRANCH  26  34
ENDBRANCH  24  25
ENDBRANCH  23  24
ENDBRANCH  22  23
TORSDOF 13
ENDMDL
MODEL 2
REMARK VINA RESULT:      -7.2     12.027     14.207
REMARK  Name = 9823887
REMARK                            x       y       z     vdW  Elec       q    Type
REMARK                         _______ _______ _______ _____ _____    ______ ____
ROOT
ATOM      1  O   LIG    1       16.932 153.782  29.214  0.00  0.00    -0.341 OA
ATOM      2  C   LIG    1       18.332 154.013  29.072  0.00  0.00    +0.282 C 
ATOM      3  C   LIG    1       18.854 153.362  27.790  0.00  0.00    +0.201 C 
ATOM      4  C   LIG    1       18.052 153.813  26.570  0.00  0.00    +0.179 C 
ATOM      5  C   LIG    1       16.550 153.700  26.822  0.00  0.00    +0.177 C 
ATOM     22  C   LIG    1       16.170 154.357  28.152  0.00  0.00    +0.178 C 
ENDROOT
BRANCH   5   6
ATOM      6  O   LIG    1       15.843 154.339  25.762  0.00  0.00    -0.386 OA
ATOM      7  H   LIG    1       15.021 154.708  26.129  0.00  0.00    +0.210 HD
ENDBRANCH   5   6
BRANCH   4   8
ATOM      8  O   LIG    1       18.377 152.983  25.454  0.00  0.00    -0.386 OA
ATOM      9  H   LIG    1       19.163 153.363  25.027  0.00  0.00    +0.210 HD
ENDBRANCH   4   8
BRANCH   3  10
ATOM     10  O   LIG    1       20.222 153.736  27.625  0.00  0.00    -0.384 OA
ATOM     11  H   LIG    1       20.756 153.205  28.238  0.00  0.00    +0.210 HD
ENDBRANCH   3  10
BRANCH   2  12
ATOM     12  O   LIG    1       19.030 153.438  30.174  0.00  0.00    -0.345 OA
BRANCH  12  13
ATOM     13  C   LIG    1       19.091 154.335  31.272  0.00  0.00    +0.190 C 
BRANCH  13  14
ATOM     14  C   LIG    1       20.476 154.889  31.366  0.00  0.00    +0.001 C 
ATOM     15  C   LIG    1       21.250 154.758  32.454  0.00  0.00    +0.006 C 
BRANCH  15  16
ATOM     16  C   LIG    1       22.624 155.274  32.586  0.00  0.00    -0.025 A 
ATOM     17  C   LIG    1       23.354 154.977  33.726  0.00  0.00    +0.008 A 
ATOM     18  C   LIG    1       24.654 155.465  33.850  0.00  0.00    +0.001 A 
ATOM     19  C   LIG    1       25.208 156.244  32.835  0.00  0.00    +0.000 A 
ATOM     20  C   LIG    1       24.461 156.535  31.694  0.00  0.00    +0.001 A 
ATOM     21  C   LIG    1       23.160 156.047  31.569  0.00  0.00    +0.008 A 
ENDBRANCH  15  16
ENDBRANCH  13  14
ENDBRANCH  12  13
ENDBRANCH   2  12
BRANCH  22  23
ATOM     23  C   LIG    1       14.694 154.155  28.481  0.00  0.00    +0.197 C 
BRANCH  23  24
ATOM     24  O   LIG    1       13.985 155.322  28.107  0.00  0.00    -0.346 OA
BRANCH  24  25
ATOM     25  C   LIG    1       14.145 156.366  29.062  0.00  0.00    +0.281 C 
ATOM     26  C   LIG    1       13.728 157.709  28.443  0.00  0.00    +0.201 C 
ATOM     27  C   LIG    1       12.207 157.835  28.309  0.00  0.00    +0.178 C 
ATOM     28  C   LIG    1       11.530 157.464  29.630  0.00  0.00    +0.171 C 
ATOM     29  C   LIG    1       12.013 156.104  30.117  0.00  0.00    +0.197 C 
ATOM     36  O   LIG    1       13.430 156.100  30.273  0.00  0.00    -0.346 OA
BRANCH  28  30
ATOM     30  O   LIG    1       10.119 157.459  29.464  0.00  0.00    -0.387 OA
ATOM     31  H   LIG    1        9.738 158.012  30.168  0.00  0.00    +0.210 HD
ENDBRANCH  28  30
BRANCH  27  32
ATOM     32  O   LIG    1       11.744 156.961  27.281  0.00  0.00    -0.386 OA
ATOM     33  H   LIG    1       10.778 157.060  27.226  0.00  0.00    +0.210 HD
ENDBRANCH  27  32
BRANCH  26  34
ATOM     34  O   LIG    1       14.216 158.752  29.283  0.00  0.00    -0.384 OA
ATOM     35  H   LIG    1       13.721 159.564  29.085  0.00  0.00    +0.210 HD
ENDBRANCH  26  34
ENDBRANCH  24  25
ENDBRANCH  23  24
ENDBRANCH  22  23
TORSDOF 13
ENDMDL
MODEL 3
REMARK VINA RESULT:      -7.2      2.287      3.720
REMARK  Name = 9823887
REMARK                            x       y       z     vdW  Elec       q    Type
REMARK                         _______ _______ _______ _____ _____    ______ ____
ROOT
ATOM      1  O   LIG    1       12.920 143.647  28.458  0.00  0.00    -0.341 OA
ATOM      2  C   LIG    1       14.160 143.237  27.888  0.00  0.00    +0.282 C 
ATOM      3  C   LIG    1       14.877 144.429  27.251  0.00  0.00    +0.201 C 
ATOM      4  C   LIG    1       15.034 145.579  28.245  0.00  0.00    +0.179 C 
ATOM      5  C   LIG    1       13.714 145.884  28.953  0.00  0.00    +0.177 C 
ATOM     22  C   LIG    1       13.087 144.602  29.508  0.00  0.00    +0.178 C 
ENDROOT
BRANCH   5   6
ATOM      6  O   LIG    1       13.952 146.794  30.023  0.00  0.00    -0.386 OA
ATOM      7  H   LIG    1       13.835 146.311  30.859  0.00  0.00    +0.210 HD
ENDBRANCH   5   6
BRANCH   4   8
ATOM      8  O   LIG    1       15.443 146.757  27.547  0.00  0.00    -0.386 OA
ATOM      9  H   LIG    1       15.065 146.711  26.652  0.00  0.00    +0.210 HD
ENDBRANCH   4   8
BRANCH   3  10
ATOM     10  O   LIG    1       16.167 143.996  26.819  0.00  0.00    -0.384 OA
ATOM     11  H   LIG    1       16.672 144.779  26.545  0.00  0.00    +0.210 HD
ENDBRANCH   3  10
BRANCH   2  12
ATOM     12  O   LIG    1       13.925 142.268  26.868  0.00  0.00    -0.345 OA
BRANCH  12  13
ATOM     13  C   LIG    1       13.039 141.254  27.313  0.00  0.00    +0.190 C 
BRANCH  13  14
ATOM     14  C   LIG    1       13.574 139.925  26.886  0.00  0.00    +0.001 C 
ATOM     15  C   LIG    1       14.448 139.214  27.614  0.00  0.00    +0.006 C 
BRANCH  15  16
ATOM     16  C   LIG    1       14.990 137.896  27.241  0.00  0.00    -0.025 A 
ATOM     17  C   LIG    1       15.328 136.994  28.237  0.00  0.00    +0.008 A 
ATOM     18  C   LIG    1       15.841 135.746  27.883  0.00  0.00    +0.001 A 
ATOM     19  C   LIG    1       16.011 135.417  26.538  0.00  0.00    +0.000 A 
ATOM     20  C   LIG    1       15.666 136.335  25.546  0.00  0.00    +0.001 A 
ATOM     21  C   LIG    1       15.153 137.583  25.901  0.00  0.00    +0.008 A 
ENDBRANCH  15  16
ENDBRANCH  13  14
ENDBRANCH  12  13
ENDBRANCH   2  12
BRANCH  22  23
ATOM     23  C   LIG    1       11.713 144.863  30.117  0.00  0.00    +0.197 C 
BRANCH  23  24
ATOM     24  O   LIG    1       11.878 145.660  31.276  0.00  0.00    -0.346 OA
BRANCH  24  25
ATOM     25  C   LIG    1       11.895 144.872  32.461  0.00  0.00    +0.281 C 
ATOM     26  C   LIG    1       13.319 144.820  33.034  0.00  0.00    +0.201 C 
ATOM     27  C   LIG    1       13.720 146.139  33.704  0.00  0.00    +0.178 C 
ATOM     28  C   LIG    1       12.623 146.594  34.668  0.00  0.00    +0.171 C 
ATOM     29  C   LIG    1       11.271 146.625  33.967  0.00  0.00    +0.197 C 
ATOM     36  O   LIG    1       10.953 145.342  33.432  0.00  0.00    -0.346 OA
BRANCH  28  30
ATOM     30  O   LIG    1       12.940 147.877  35.188  0.00  0.00    -0.387 OA
ATOM     31  H   LIG    1       13.326 147.749  36.072  0.00  0.00    +0.210 HD
ENDBRANCH  28  30
BRANCH  27  32
ATOM     32  O   LIG    1       13.916 147.140  32.707  0.00  0.00    -0.386 OA
ATOM     33  H   LIG    1       13.920 148.003  33.155  0.00  0.00    +0.210 HD
ENDBRANCH  27  32
BRANCH  26  34
ATOM     34  O   LIG    1       13.370 143.768  33.995  0.00  0.00    -0.384 OA
ATOM     35  H   LIG    1       13.857 144.086  34.774  0.00  0.00    +0.210 HD
ENDBRANCH  26  34
ENDBRANCH  24  25
ENDBRANCH  23  24
ENDBRANCH  22  23
TORSDOF 13
ENDMDL
MODEL 4
REMARK VINA RESULT:      -7.1     12.038     15.150
REMARK  Name = 9823887
REMARK                            x       y       z     vdW  Elec       q    Type
REMARK                         _______ _______ _______ _____ _____    ______ ____
ROOT
ATOM      1  O   LIG    1       17.915 153.812  30.333  0.00  0.00    -0.341 OA
ATOM      2  C   LIG    1       18.545 153.004  31.324  0.00  0.00    +0.282 C 
ATOM      3  C   LIG    1       17.933 153.269  32.700  0.00  0.00    +0.201 C 
ATOM      4  C   LIG    1       16.414 153.099  32.676  0.00  0.00    +0.179 C 
ATOM      5  C   LIG    1       15.791 153.854  31.502  0.00  0.00    +0.177 C 
ATOM     22  C   LIG    1       16.522 153.526  30.197  0.00  0.00    +0.178 C 
ENDROOT
BRANCH   5   6
ATOM      6  O   LIG    1       14.420 153.487  31.380  0.00  0.00    -0.386 OA
ATOM      7  H   LIG    1       13.942 154.239  30.988  0.00  0.00    +0.210 HD
ENDBRANCH   5   6
BRANCH   4   8
ATOM      8  O   LIG    1       15.858 153.624  33.883  0.00  0.00    -0.386 OA
ATOM      9  H   LIG    1       15.148 154.239  33.633  0.00  0.00    +0.210 HD
ENDBRANCH   4   8
BRANCH   3  10
ATOM     10  O   LIG    1       18.499 152.343  33.627  0.00  0.00    -0.384 OA
ATOM     11  H   LIG    1       19.172 152.812  34.149  0.00  0.00    +0.210 HD
ENDBRANCH   3  10
BRANCH   2  12
ATOM     12  O   LIG    1       19.934 153.319  31.392  0.00  0.00    -0.345 OA
BRANCH  12  13
ATOM     13  C   LIG    1       20.144 154.617  31.924  0.00  0.00    +0.190 C 
BRANCH  13  14
ATOM     14  C   LIG    1       21.519 154.682  32.508  0.00  0.00    +0.001 C 
ATOM     15  C   LIG    1       22.387 155.670  32.242  0.00  0.00    +0.006 C 
BRANCH  15  16
ATOM     16  C   LIG    1       23.743 155.783  32.805  0.00  0.00    -0.025 A 
ATOM     17  C   LIG    1       24.786 156.190  31.988  0.00  0.00    +0.008 A 
ATOM     18  C   LIG    1       26.070 156.297  32.521  0.00  0.00    +0.001 A 
ATOM     19  C   LIG    1       26.296 155.995  33.864  0.00  0.00    +0.000 A 
ATOM     20  C   LIG    1       25.237 155.586  34.674  0.00  0.00    +0.001 A 
ATOM     21  C   LIG    1       23.952 155.480  34.141  0.00  0.00    +0.008 A 
ENDBRANCH  15  16
ENDBRANCH  13  14
ENDBRANCH  12  13
ENDBRANCH   2  12
BRANCH  22  23
ATOM     23  C   LIG    1       15.993 154.356  29.030  0.00  0.00    +0.197 C 
BRANCH  23  24
ATOM     24  O   LIG    1       16.655 153.943  27.848  0.00  0.00    -0.346 OA
BRANCH  24  25
ATOM     25  C   LIG    1       16.562 154.924  26.821  0.00  0.00    +0.281 C 
ATOM     26  C   LIG    1       17.325 156.191  27.238  0.00  0.00    +0.201 C 
ATOM     27  C   LIG    1       18.843 156.003  27.154  0.00  0.00    +0.178 C 
ATOM     28  C   LIG    1       19.226 155.402  25.800  0.00  0.00    +0.171 C 
ATOM     29  C   LIG    1       18.415 154.142  25.524  0.00  0.00    +0.197 C 
ATOM     36  O   LIG    1       17.018 154.426  25.559  0.00  0.00    -0.346 OA
BRANCH  28  30
ATOM     30  O   LIG    1       20.616 155.112  25.776  0.00  0.00    -0.387 OA
ATOM     31  H   LIG    1       20.828 154.623  26.590  0.00  0.00    +0.210 HD
ENDBRANCH  28  30
BRANCH  27  32
ATOM     32  O   LIG    1       19.275 155.129  28.196  0.00  0.00    -0.386 OA
ATOM     33  H   LIG    1       20.074 154.672  27.883  0.00  0.00    +0.210 HD
ENDBRANCH  27  32
BRANCH  26  34
ATOM     34  O   LIG    1       16.931 157.249  26.368  0.00  0.00    -0.384 OA
ATOM     35  H   LIG    1       17.732 157.661  26.002  0.00  0.00    +0.210 HD
ENDBRANCH  26  34
ENDBRANCH  24  25
ENDBRANCH  23  24
ENDBRANCH  22  23
TORSDOF 13
ENDMDL
MODEL 5
REMARK VINA RESULT:      -7.1      2.328      3.223
REMARK  Name = 9823887
REMARK                            x       y       z     vdW  Elec       q    Type
REMARK                         _______ _______ _______ _____ _____    ______ ____
ROOT
ATOM      1  O   LIG    1       12.995 143.563  28.364  0.00  0.00    -0.341 OA
ATOM      2  C   LIG    1       14.251 143.221  27.782  0.00  0.00    +0.282 C 
ATOM      3  C   LIG    1       14.943 144.468  27.231  0.00  0.00    +0.201 C 
ATOM      4  C   LIG    1       15.062 145.556  28.298  0.00  0.00    +0.179 C 
ATOM      5  C   LIG    1       13.729 145.781  29.009  0.00  0.00    +0.177 C 
ATOM     22  C   LIG    1       13.129 144.452  29.474  0.00  0.00    +0.178 C 
ENDROOT
BRANCH   5   6
ATOM      6  O   LIG    1       13.933 146.627  30.138  0.00  0.00    -0.386 OA
ATOM      7  H   LIG    1       14.827 146.456  30.482  0.00  0.00    +0.210 HD
ENDBRANCH   5   6
BRANCH   4   8
ATOM      8  O   LIG    1       15.447 146.786  27.681  0.00  0.00    -0.386 OA
ATOM      9  H   LIG    1       16.018 146.566  26.926  0.00  0.00    +0.210 HD
ENDBRANCH   4   8
BRANCH   3  10
ATOM     10  O   LIG    1       16.248 144.095  26.786  0.00  0.00    -0.384 OA
ATOM     11  H   LIG    1       16.864 144.210  27.529  0.00  0.00    +0.210 HD
ENDBRANCH   3  10
BRANCH   2  12
ATOM     12  O   LIG    1       14.050 142.314  26.700  0.00  0.00    -0.345 OA
BRANCH  12  13
ATOM     13  C   LIG    1       13.473 141.097  27.145  0.00  0.00    +0.190 C 
BRANCH  13  14
ATOM     14  C   LIG    1       12.558 140.580  26.083  0.00  0.00    +0.001 C 
ATOM     15  C   LIG    1       12.692 140.884  24.783  0.00  0.00    +0.006 C 
BRANCH  15  16
ATOM     16  C   LIG    1       11.825 140.387  23.700  0.00  0.00    -0.025 A 
ATOM     17  C   LIG    1       11.992 139.092  23.236  0.00  0.00    +0.008 A 
ATOM     18  C   LIG    1       11.170 138.622  22.212  0.00  0.00    +0.001 A 
ATOM     19  C   LIG    1       10.194 139.454  21.664  0.00  0.00    +0.000 A 
ATOM     20  C   LIG    1       10.037 140.755  22.140  0.00  0.00    +0.001 A 
ATOM     21  C   LIG    1       10.859 141.225  23.166  0.00  0.00    +0.008 A 
ENDBRANCH  15  16
ENDBRANCH  13  14
ENDBRANCH  12  13
ENDBRANCH   2  12
BRANCH  22  23
ATOM     23  C   LIG    1       11.743 144.639  30.084  0.00  0.00    +0.197 C 
BRANCH  23  24
ATOM     24  O   LIG    1       11.002 145.519  29.257  0.00  0.00    -0.346 OA
BRANCH  24  25
ATOM     25  C   LIG    1       10.194 146.407  30.022  0.00  0.00    +0.281 C 
ATOM     26  C   LIG    1        9.686 147.551  29.131  0.00  0.00    +0.201 C 
ATOM     27  C   LIG    1        8.577 147.091  28.179  0.00  0.00    +0.178 C 
ATOM     28  C   LIG    1        7.509 146.315  28.952  0.00  0.00    +0.171 C 
ATOM     29  C   LIG    1        8.143 145.198  29.771  0.00  0.00    +0.197 C 
ATOM     36  O   LIG    1        9.115 145.725  30.671  0.00  0.00    -0.346 OA
BRANCH  28  30
ATOM     30  O   LIG    1        6.550 145.783  28.048  0.00  0.00    -0.387 OA
ATOM     31  H   LIG    1        7.036 145.379  27.308  0.00  0.00    +0.210 HD
ENDBRANCH  28  30
BRANCH  27  32
ATOM     32  O   LIG    1        9.132 146.250  27.169  0.00  0.00    -0.386 OA
ATOM     33  H   LIG    1        8.422 146.043  26.538  0.00  0.00    +0.210 HD
ENDBRANCH  27  32
BRANCH  26  34
ATOM     34  O   LIG    1        9.184 148.580  29.979  0.00  0.00    -0.384 OA
ATOM     35  H   LIG    1        9.219 149.422  29.495  0.00  0.00    +0.210 HD
ENDBRANCH  26  34
ENDBRANCH  24  25
ENDBRANCH  23  24
ENDBRANCH  22  23
TORSDOF 13
ENDMDL
MODEL 6
REMARK VINA RESULT:      -6.9     21.175     24.141
REMARK  Name = 9823887
REMARK                            x       y       z     vdW  Elec       q    Type
REMARK                         _______ _______ _______ _____ _____    ______ ____
ROOT
ATOM      1  O   LIG    1       29.237 139.564  13.589  0.00  0.00    -0.341 OA
ATOM      2  C   LIG    1       28.340 140.496  12.987  0.00  0.00    +0.282 C 
ATOM      3  C   LIG    1       28.864 141.923  13.148  0.00  0.00    +0.201 C 
ATOM      4  C   LIG    1       30.293 142.054  12.624  0.00  0.00    +0.179 C 
ATOM      5  C   LIG    1       31.187 140.941  13.168  0.00  0.00    +0.177 C 
ATOM     22  C   LIG    1       30.528 139.573  12.978  0.00  0.00    +0.178 C 
ENDROOT
BRANCH   5   6
ATOM      6  O   LIG    1       32.437 140.962  12.484  0.00  0.00    -0.386 OA
ATOM      7  H   LIG    1       32.985 141.661  12.881  0.00  0.00    +0.210 HD
ENDBRANCH   5   6
BRANCH   4   8
ATOM      8  O   LIG    1       30.841 143.305  13.044  0.00  0.00    -0.386 OA
ATOM      9  H   LIG    1       31.736 143.372  12.668  0.00  0.00    +0.210 HD
ENDBRANCH   4   8
BRANCH   3  10
ATOM     10  O   LIG    1       28.008 142.799  12.416  0.00  0.00    -0.384 OA
ATOM     11  H   LIG    1       27.176 142.329  12.239  0.00  0.00    +0.210 HD
ENDBRANCH   3  10
BRANCH   2  12
ATOM     12  O   LIG    1       27.067 140.419  13.624  0.00  0.00    -0.345 OA
BRANCH  12  13
ATOM     13  C   LIG    1       26.245 139.433  13.020  0.00  0.00    +0.190 C 
BRANCH  13  14
ATOM     14  C   LIG    1       25.689 139.983  11.746  0.00  0.00    +0.001 C 
ATOM     15  C   LIG    1       24.851 141.031  11.700  0.00  0.00    +0.006 C 
BRANCH  15  16
ATOM     16  C   LIG    1       24.290 141.616  10.470  0.00  0.00    -0.025 A 
ATOM     17  C   LIG    1       23.111 141.104   9.950  0.00  0.00    +0.008 A 
ATOM     18  C   LIG    1       22.581 141.659   8.786  0.00  0.00    +0.001 A 
ATOM     19  C   LIG    1       23.236 142.716   8.155  0.00  0.00    +0.000 A 
ATOM     20  C   LIG    1       24.421 143.221   8.689  0.00  0.00    +0.001 A 
ATOM     21  C   LIG    1       24.952 142.666   9.854  0.00  0.00    +0.008 A 
ENDBRANCH  15  16
ENDBRANCH  13  14
ENDBRANCH  12  13
ENDBRANCH   2  12
BRANCH  22  23
ATOM     23  C   LIG    1       31.348 138.456  13.617  0.00  0.00    +0.197 C 
BRANCH  23  24
ATOM     24  O   LIG    1       31.955 138.960  14.793  0.00  0.00    -0.346 OA
BRANCH  24  25
ATOM     25  C   LIG    1       33.326 138.587  14.881  0.00  0.00    +0.281 C 
ATOM     26  C   LIG    1       34.197 139.838  15.070  0.00  0.00    +0.201 C 
ATOM     27  C   LIG    1       34.087 140.408  16.488  0.00  0.00    +0.178 C 
ATOM     28  C   LIG    1       34.276 139.294  17.519  0.00  0.00    +0.171 C 
ATOM     29  C   LIG    1       33.338 138.129  17.230  0.00  0.00    +0.197 C 
ATOM     36  O   LIG    1       33.556 137.624  15.915  0.00  0.00    -0.346 OA
BRANCH  28  30
ATOM     30  O   LIG    1       34.047 139.802  18.826  0.00  0.00    -0.387 OA
ATOM     31  H   LIG    1       34.873 139.701  19.330  0.00  0.00    +0.210 HD
ENDBRANCH  28  30
BRANCH  27  32
ATOM     32  O   LIG    1       32.802 141.001  16.666  0.00  0.00    -0.386 OA
ATOM     33  H   LIG    1       32.288 140.417  17.250  0.00  0.00    +0.210 HD
ENDBRANCH  27  32
BRANCH  26  34
ATOM     34  O   LIG    1       35.551 139.476  14.810  0.00  0.00    -0.384 OA
ATOM     35  H   LIG    1       35.994 139.310  15.659  0.00  0.00    +0.210 HD
ENDBRANCH  26  34
ENDBRANCH  24  25
ENDBRANCH  23  24
ENDBRANCH  22  23
TORSDOF 13
ENDMDL
MODEL 7
REMARK VINA RESULT:      -6.9     23.499     25.531
REMARK  Name = 9823887
REMARK                            x       y       z     vdW  Elec       q    Type
REMARK                         _______ _______ _______ _____ _____    ______ ____
ROOT
ATOM      1  O   LIG    1       19.368 164.591  20.721  0.00  0.00    -0.341 OA
ATOM      2  C   LIG    1       19.456 164.130  19.375  0.00  0.00    +0.282 C 
ATOM      3  C   LIG    1       19.514 165.311  18.406  0.00  0.00    +0.201 C 
ATOM      4  C   LIG    1       20.638 166.279  18.775  0.00  0.00    +0.179 C 
ATOM      5  C   LIG    1       20.605 166.625  20.263  0.00  0.00    +0.177 C 
ATOM     22  C   LIG    1       20.509 165.356  21.114  0.00  0.00    +0.178 C 
ENDROOT
BRANCH   5   6
ATOM      6  O   LIG    1       21.792 167.335  20.608  0.00  0.00    -0.386 OA
ATOM      7  H   LIG    1       21.622 168.284  20.475  0.00  0.00    +0.210 HD
ENDBRANCH   5   6
BRANCH   4   8
ATOM      8  O   LIG    1       20.484 167.491  18.036  0.00  0.00    -0.386 OA
ATOM      9  H   LIG    1       20.990 168.180  18.498  0.00  0.00    +0.210 HD
ENDBRANCH   4   8
BRANCH   3  10
ATOM     10  O   LIG    1       19.738 164.802  17.092  0.00  0.00    -0.384 OA
ATOM     11  H   LIG    1       19.004 164.204  16.871  0.00  0.00    +0.210 HD
ENDBRANCH   3  10
BRANCH   2  12
ATOM     12  O   LIG    1       18.303 163.354  19.055  0.00  0.00    -0.345 OA
BRANCH  12  13
ATOM     13  C   LIG    1       17.112 164.111  19.206  0.00  0.00    +0.190 C 
BRANCH  13  14
ATOM     14  C   LIG    1       16.108 163.633  18.208  0.00  0.00    +0.001 C 
ATOM     15  C   LIG    1       16.055 164.079  16.943  0.00  0.00    +0.006 C 
BRANCH  15  16
ATOM     16  C   LIG    1       15.094 163.628  15.922  0.00  0.00    -0.025 A 
ATOM     17  C   LIG    1       15.516 163.479  14.611  0.00  0.00    +0.008 A 
ATOM     18  C   LIG    1       14.605 163.051  13.645  0.00  0.00    +0.001 A 
ATOM     19  C   LIG    1       13.285 162.778  14.002  0.00  0.00    +0.000 A 
ATOM     20  C   LIG    1       12.875 162.932  15.326  0.00  0.00    +0.001 A 
ATOM     21  C   LIG    1       13.785 163.360  16.292  0.00  0.00    +0.008 A 
ENDBRANCH  15  16
ENDBRANCH  13  14
ENDBRANCH  12  13
ENDBRANCH   2  12
BRANCH  22  23
ATOM     23  C   LIG    1       20.357 165.681  22.597  0.00  0.00    +0.197 C 
BRANCH  23  24
ATOM     24  O   LIG    1       21.569 166.248  23.060  0.00  0.00    -0.346 OA
BRANCH  24  25
ATOM     25  C   LIG    1       22.454 165.258  23.573  0.00  0.00    +0.281 C 
ATOM     26  C   LIG    1       23.783 165.295  22.803  0.00  0.00    +0.201 C 
ATOM     27  C   LIG    1       24.641 166.504  23.192  0.00  0.00    +0.178 C 
ATOM     28  C   LIG    1       24.742 166.611  24.714  0.00  0.00    +0.171 C 
ATOM     29  C   LIG    1       23.357 166.587  25.347  0.00  0.00    +0.197 C 
ATOM     36  O   LIG    1       22.658 165.399  24.984  0.00  0.00    -0.346 OA
BRANCH  28  30
ATOM     30  O   LIG    1       25.430 167.802  25.070  0.00  0.00    -0.387 OA
ATOM     31  H   LIG    1       25.792 168.187  24.253  0.00  0.00    +0.210 HD
ENDBRANCH  28  30
BRANCH  27  32
ATOM     32  O   LIG    1       24.050 167.695  22.674  0.00  0.00    -0.386 OA
ATOM     33  H   LIG    1       23.084 167.593  22.736  0.00  0.00    +0.210 HD
ENDBRANCH  27  32
BRANCH  26  34
ATOM     34  O   LIG    1       24.496 164.096  23.097  0.00  0.00    -0.384 OA
ATOM     35  H   LIG    1       25.121 163.924  22.373  0.00  0.00    +0.210 HD
ENDBRANCH  26  34
ENDBRANCH  24  25
ENDBRANCH  23  24
ENDBRANCH  22  23
TORSDOF 13
ENDMDL
MODEL 8
REMARK VINA RESULT:      -6.8     24.310     27.478
REMARK  Name = 9823887
REMARK                            x       y       z     vdW  Elec       q    Type
REMARK                         _______ _______ _______ _____ _____    ______ ____
ROOT
ATOM      1  O   LIG    1       15.455 164.585  14.232  0.00  0.00    -0.341 OA
ATOM      2  C   LIG    1       14.948 163.531  15.047  0.00  0.00    +0.282 C 
ATOM      3  C   LIG    1       13.581 163.909  15.619  0.00  0.00    +0.201 C 
ATOM      4  C   LIG    1       12.610 164.323  14.514  0.00  0.00    +0.179 C 
ATOM      5  C   LIG    1       13.249 165.337  13.566  0.00  0.00    +0.177 C 
ATOM     22  C   LIG    1       14.625 164.853  13.101  0.00  0.00    +0.178 C 
ENDROOT
BRANCH   5   6
ATOM      6  O   LIG    1       12.405 165.521  12.432  0.00  0.00    -0.386 OA
ATOM      7  H   LIG    1       12.021 166.413  12.486  0.00  0.00    +0.210 HD
ENDBRANCH   5   6
BRANCH   4   8
ATOM      8  O   LIG    1       11.456 164.931  15.098  0.00  0.00    -0.386 OA
ATOM      9  H   LIG    1       10.687 164.670  14.562  0.00  0.00    +0.210 HD
ENDBRANCH   4   8
BRANCH   3  10
ATOM     10  O   LIG    1       13.057 162.775  16.310  0.00  0.00    -0.384 OA
ATOM     11  H   LIG    1       12.608 162.207  15.661  0.00  0.00    +0.210 HD
ENDBRANCH   3  10
BRANCH   2  12
ATOM     12  O   LIG    1       15.833 163.297  16.139  0.00  0.00    -0.345 OA
BRANCH  12  13
ATOM     13  C   LIG    1       17.067 163.975  15.959  0.00  0.00    +0.190 C 
BRANCH  13  14
ATOM     14  C   LIG    1       17.677 164.228  17.300  0.00  0.00    +0.001 C 
ATOM     15  C   LIG    1       18.960 164.583  17.471  0.00  0.00    +0.006 C 
BRANCH  15  16
ATOM     16  C   LIG    1       19.601 164.856  18.769  0.00  0.00    -0.025 A 
ATOM     17  C   LIG    1       19.511 163.915  19.782  0.00  0.00    +0.008 A 
ATOM     18  C   LIG    1       20.117 164.175  21.011  0.00  0.00    +0.001 A 
ATOM     19  C   LIG    1       20.805 165.372  21.211  0.00  0.00    +0.000 A 
ATOM     20  C   LIG    1       20.887 166.310  20.182  0.00  0.00    +0.001 A 
ATOM     21  C   LIG    1       20.280 166.050  18.953  0.00  0.00    +0.008 A 
ENDBRANCH  15  16
ENDBRANCH  13  14
ENDBRANCH  12  13
ENDBRANCH   2  12
BRANCH  22  23
ATOM     23  C   LIG    1       15.333 165.900  12.247  0.00  0.00    +0.197 C 
BRANCH  23  24
ATOM     24  O   LIG    1       14.784 165.863  10.942  0.00  0.00    -0.346 OA
BRANCH  24  25
ATOM     25  C   LIG    1       14.839 167.138  10.310  0.00  0.00    +0.281 C 
ATOM     26  C   LIG    1       16.293 167.486   9.959  0.00  0.00    +0.201 C 
ATOM     27  C   LIG    1       16.806 166.682   8.760  0.00  0.00    +0.178 C 
ATOM     28  C   LIG    1       15.801 166.755   7.609  0.00  0.00    +0.171 C 
ATOM     29  C   LIG    1       14.409 166.362   8.087  0.00  0.00    +0.197 C 
ATOM     36  O   LIG    1       13.989 167.203   9.159  0.00  0.00    -0.346 OA
BRANCH  28  30
ATOM     30  O   LIG    1       16.219 165.906   6.549  0.00  0.00    -0.387 OA
ATOM     31  H   LIG    1       15.461 165.787   5.952  0.00  0.00    +0.210 HD
ENDBRANCH  28  30
BRANCH  27  32
ATOM     32  O   LIG    1       16.988 165.320   9.141  0.00  0.00    -0.386 OA
ATOM     33  H   LIG    1       17.797 165.272   9.679  0.00  0.00    +0.210 HD
ENDBRANCH  27  32
BRANCH  26  34
ATOM     34  O   LIG    1       16.352 168.878   9.655  0.00  0.00    -0.384 OA
ATOM     35  H   LIG    1       15.963 169.372  10.396  0.00  0.00    +0.210 HD
ENDBRANCH  26  34
ENDBRANCH  24  25
ENDBRANCH  23  24
ENDBRANCH  22  23
TORSDOF 13
ENDMDL
MODEL 9
REMARK VINA RESULT:      -6.7     24.024     27.106
REMARK  Name = 9823887
REMARK                            x       y       z     vdW  Elec       q    Type
REMARK                         _______ _______ _______ _____ _____    ______ ____
ROOT
ATOM      1  O   LIG    1       16.721 165.137  17.679  0.00  0.00    -0.341 OA
ATOM      2  C   LIG    1       17.921 165.894  17.824  0.00  0.00    +0.282 C 
ATOM      3  C   LIG    1       19.107 164.968  18.096  0.00  0.00    +0.201 C 
ATOM      4  C   LIG    1       19.219 163.879  17.030  0.00  0.00    +0.179 C 
ATOM      5  C   LIG    1       17.872 163.198  16.790  0.00  0.00    +0.177 C 
ATOM     22  C   LIG    1       16.770 164.238  16.571  0.00  0.00    +0.178 C 
ENDROOT
BRANCH   5   6
ATOM      6  O   LIG    1       17.965 162.360  15.641  0.00  0.00    -0.386 OA
ATOM      7  H   LIG    1       17.061 162.121  15.371  0.00  0.00    +0.210 HD
ENDBRANCH   5   6
BRANCH   4   8
ATOM      8  O   LIG    1       20.146 162.882  17.464  0.00  0.00    -0.386 OA
ATOM      9  H   LIG    1       19.648 162.056  17.588  0.00  0.00    +0.210 HD
ENDBRANCH   4   8
BRANCH   3  10
ATOM     10  O   LIG    1       20.298 165.756  18.096  0.00  0.00    -0.384 OA
ATOM     11  H   LIG    1       21.048 165.168  18.284  0.00  0.00    +0.210 HD
ENDBRANCH   3  10
BRANCH   2  12
ATOM     12  O   LIG    1       17.797 166.787  18.929  0.00  0.00    -0.345 OA
BRANCH  12  13
ATOM     13  C   LIG    1       17.400 168.081  18.504  0.00  0.00    +0.190 C 
BRANCH  13  14
ATOM     14  C   LIG    1       18.593 168.981  18.519  0.00  0.00    +0.001 C 
ATOM     15  C   LIG    1       19.362 169.168  19.602  0.00  0.00    +0.006 C 
BRANCH  15  16
ATOM     16  C   LIG    1       20.554 170.032  19.659  0.00  0.00    -0.025 A 
ATOM     17  C   LIG    1       21.399 169.953  20.755  0.00  0.00    +0.008 A 
ATOM     18  C   LIG    1       22.527 170.771  20.807  0.00  0.00    +0.001 A 
ATOM     19  C   LIG    1       22.796 171.658  19.765  0.00  0.00    +0.000 A 
ATOM     20  C   LIG    1       21.937 171.726  18.669  0.00  0.00    +0.001 A 
ATOM     21  C   LIG    1       20.808 170.908  18.616  0.00  0.00    +0.008 A 
ENDBRANCH  15  16
ENDBRANCH  13  14
ENDBRANCH  12  13
ENDBRANCH   2  12
BRANCH  22  23
ATOM     23  C   LIG    1       15.396 163.587  16.445  0.00  0.00    +0.197 C 
BRANCH  23  24
ATOM     24  O   LIG    1       15.086 163.451  15.070  0.00  0.00    -0.346 OA
BRANCH  24  25
ATOM     25  C   LIG    1       13.686 163.307  14.856  0.00  0.00    +0.281 C 
ATOM     26  C   LIG    1       12.967 164.623  15.191  0.00  0.00    +0.201 C 
ATOM     27  C   LIG    1       13.192 165.693  14.117  0.00  0.00    +0.178 C 
ATOM     28  C   LIG    1       12.918 165.111  12.729  0.00  0.00    +0.171 C 
ATOM     29  C   LIG    1       13.709 163.827  12.519  0.00  0.00    +0.197 C 
ATOM     36  O   LIG    1       13.388 162.869  13.525  0.00  0.00    -0.346 OA
BRANCH  28  30
ATOM     30  O   LIG    1       13.250 166.067  11.731  0.00  0.00    -0.387 OA
ATOM     31  H   LIG    1       12.484 166.149  11.137  0.00  0.00    +0.210 HD
ENDBRANCH  28  30
BRANCH  27  32
ATOM     32  O   LIG    1       14.542 166.153  14.177  0.00  0.00    -0.386 OA
ATOM     33  H   LIG    1       14.783 166.467  13.288  0.00  0.00    +0.210 HD
ENDBRANCH  27  32
BRANCH  26  34
ATOM     34  O   LIG    1       11.573 164.349  15.299  0.00  0.00    -0.384 OA
ATOM     35  H   LIG    1       11.415 163.437  15.005  0.00  0.00    +0.210 HD
ENDBRANCH  26  34
ENDBRANCH  24  25
ENDBRANCH  23  24
ENDBRANCH  22  23
TORSDOF 13
ENDMDL
