MODEL 1
REMARK VINA RESULT:      -7.4      0.000      0.000
REMARK  Name = 9823887
REMARK                            x       y       z     vdW  Elec       q    Type
REMARK                         _______ _______ _______ _____ _____    ______ ____
ROOT
ATOM      1  O   LIG    1        0.792  33.370  62.113  0.00  0.00    -0.341 OA
ATOM      2  C   LIG    1       -0.478  32.908  61.659  0.00  0.00    +0.282 C 
ATOM      3  C   LIG    1       -0.355  31.505  61.063  0.00  0.00    +0.201 C 
ATOM      4  C   LIG    1        0.311  30.540  62.044  0.00  0.00    +0.179 C 
ATOM      5  C   LIG    1        1.588  31.140  62.630  0.00  0.00    +0.177 C 
ATOM     22  C   LIG    1        1.333  32.555  63.154  0.00  0.00    +0.178 C 
ENDROOT
BRANCH   5   6
ATOM      6  O   LIG    1        2.049  30.317  63.699  0.00  0.00    -0.386 OA
ATOM      7  H   LIG    1        2.735  30.809  64.182  0.00  0.00    +0.210 HD
ENDBRANCH   5   6
BRANCH   4   8
ATOM      8  O   LIG    1        0.662  29.335  61.361  0.00  0.00    -0.386 OA
ATOM      9  H   LIG    1        1.324  29.565  60.687  0.00  0.00    +0.210 HD
ENDBRANCH   4   8
BRANCH   3  10
ATOM     10  O   LIG    1       -1.666  31.036  60.752  0.00  0.00    -0.384 OA
ATOM     11  H   LIG    1       -2.291  31.454  61.368  0.00  0.00    +0.210 HD
ENDBRANCH   3  10
BRANCH   2  12
ATOM     12  O   LIG    1       -0.972  33.777  60.642  0.00  0.00    -0.345 OA
BRANCH  12  13
ATOM     13  C   LIG    1       -1.721  34.847  61.196  0.00  0.00    +0.190 C 
BRANCH  13  14
ATOM     14  C   LIG    1       -3.156  34.439  61.279  0.00  0.00    +0.001 C 
ATOM     15  C   LIG    1       -3.854  34.427  62.425  0.00  0.00    +0.006 C 
BRANCH  15  16
ATOM     16  C   LIG    1       -5.272  34.047  62.552  0.00  0.00    -0.025 A 
ATOM     17  C   LIG    1       -5.690  32.814  62.077  0.00  0.00    +0.008 A 
ATOM     18  C   LIG    1       -7.032  32.455  62.198  0.00  0.00    +0.001 A 
ATOM     19  C   LIG    1       -7.939  33.333  62.791  0.00  0.00    +0.000 A 
ATOM     20  C   LIG    1       -7.504  34.571  63.264  0.00  0.00    +0.001 A 
ATOM     21  C   LIG    1       -6.161  34.931  63.143  0.00  0.00    +0.008 A 
ENDBRANCH  15  16
ENDBRANCH  13  14
ENDBRANCH  12  13
ENDBRANCH   2  12
BRANCH  22  23
ATOM     23  C   LIG    1        2.619  33.219  63.638  0.00  0.00    +0.197 C 
BRANCH  23  24
ATOM     24  O   LIG    1        3.012  32.607  64.853  0.00  0.00    -0.346 OA
BRANCH  24  25
ATOM     25  C   LIG    1        4.374  32.877  65.164  0.00  0.00    +0.281 C 
ATOM     26  C   LIG    1        4.530  34.341  65.604  0.00  0.00    +0.201 C 
ATOM     27  C   LIG    1        3.985  34.579  67.016  0.00  0.00    +0.178 C 
ATOM     28  C   LIG    1        4.536  33.526  67.978  0.00  0.00    +0.171 C 
ATOM     29  C   LIG    1        4.294  32.123  67.435  0.00  0.00    +0.197 C 
ATOM     36  O   LIG    1        4.890  31.973  66.148  0.00  0.00    -0.346 OA
BRANCH  28  30
ATOM     30  O   LIG    1        3.930  33.674  69.255  0.00  0.00    -0.387 OA
ATOM     31  H   LIG    1        3.774  32.783  69.611  0.00  0.00    +0.210 HD
ENDBRANCH  28  30
BRANCH  27  32
ATOM     32  O   LIG    1        2.561  34.502  66.998  0.00  0.00    -0.386 OA
ATOM     33  H   LIG    1        2.254  34.941  66.186  0.00  0.00    +0.210 HD
ENDBRANCH  27  32
BRANCH  26  34
ATOM     34  O   LIG    1        5.918  34.665  65.572  0.00  0.00    -0.384 OA
ATOM     35  H   LIG    1        6.149  35.111  66.404  0.00  0.00    +0.210 HD
ENDBRANCH  26  34
ENDBRANCH  24  25
ENDBRANCH  23  24
ENDBRANCH  22  23
TORSDOF 13
ENDMDL
MODEL 2
REMARK VINA RESULT:      -7.4      2.255      3.795
REMARK  Name = 9823887
REMARK                            x       y       z     vdW  Elec       q    Type
REMARK                         _______ _______ _______ _____ _____    ______ ____
ROOT
ATOM      1  O   LIG    1       -1.608  32.060  62.555  0.00  0.00    -0.341 OA
ATOM      2  C   LIG    1       -2.753  32.698  61.994  0.00  0.00    +0.282 C 
ATOM      3  C   LIG    1       -2.470  34.180  61.742  0.00  0.00    +0.201 C 
ATOM      4  C   LIG    1       -1.211  34.370  60.897  0.00  0.00    +0.179 C 
ATOM      5  C   LIG    1       -0.047  33.543  61.442  0.00  0.00    +0.177 C 
ATOM     22  C   LIG    1       -0.478  32.094  61.683  0.00  0.00    +0.178 C 
ENDROOT
BRANCH   5   6
ATOM      6  O   LIG    1        1.027  33.566  60.506  0.00  0.00    -0.386 OA
ATOM      7  H   LIG    1        1.847  33.353  60.985  0.00  0.00    +0.210 HD
ENDBRANCH   5   6
BRANCH   4   8
ATOM      8  O   LIG    1       -0.824  35.746  60.923  0.00  0.00    -0.386 OA
ATOM      9  H   LIG    1        0.101  35.782  61.219  0.00  0.00    +0.210 HD
ENDBRANCH   4   8
BRANCH   3  10
ATOM     10  O   LIG    1       -3.590  34.739  61.058  0.00  0.00    -0.384 OA
ATOM     11  H   LIG    1       -3.679  35.667  61.333  0.00  0.00    +0.210 HD
ENDBRANCH   3  10
BRANCH   2  12
ATOM     12  O   LIG    1       -3.850  32.607  62.901  0.00  0.00    -0.345 OA
BRANCH  12  13
ATOM     13  C   LIG    1       -4.661  31.478  62.618  0.00  0.00    +0.190 C 
BRANCH  13  14
ATOM     14  C   LIG    1       -5.765  31.895  61.702  0.00  0.00    +0.001 C 
ATOM     15  C   LIG    1       -6.657  31.037  61.184  0.00  0.00    +0.006 C 
BRANCH  15  16
ATOM     16  C   LIG    1       -7.769  31.404  60.289  0.00  0.00    -0.025 A 
ATOM     17  C   LIG    1       -8.768  32.242  60.757  0.00  0.00    +0.008 A 
ATOM     18  C   LIG    1       -9.820  32.589  59.909  0.00  0.00    +0.001 A 
ATOM     19  C   LIG    1       -9.860  32.093  58.606  0.00  0.00    +0.000 A 
ATOM     20  C   LIG    1       -8.847  31.250  58.150  0.00  0.00    +0.001 A 
ATOM     21  C   LIG    1       -7.795  30.903  58.997  0.00  0.00    +0.008 A 
ENDBRANCH  15  16
ENDBRANCH  13  14
ENDBRANCH  12  13
ENDBRANCH   2  12
BRANCH  22  23
ATOM     23  C   LIG    1        0.633  31.276  62.336  0.00  0.00    +0.197 C 
BRANCH  23  24
ATOM     24  O   LIG    1        1.351  32.116  63.221  0.00  0.00    -0.346 OA
BRANCH  24  25
ATOM     25  C   LIG    1        2.742  31.816  63.222  0.00  0.00    +0.281 C 
ATOM     26  C   LIG    1        3.539  33.032  63.718  0.00  0.00    +0.201 C 
ATOM     27  C   LIG    1        3.409  33.228  65.232  0.00  0.00    +0.178 C 
ATOM     28  C   LIG    1        3.673  31.908  65.958  0.00  0.00    +0.171 C 
ATOM     29  C   LIG    1        2.803  30.796  65.386  0.00  0.00    +0.197 C 
ATOM     36  O   LIG    1        3.038  30.643  63.988  0.00  0.00    -0.346 OA
BRANCH  28  30
ATOM     30  O   LIG    1        3.427  32.065  67.349  0.00  0.00    -0.387 OA
ATOM     31  H   LIG    1        3.255  33.008  67.512  0.00  0.00    +0.210 HD
ENDBRANCH  28  30
BRANCH  27  32
ATOM     32  O   LIG    1        2.092  33.681  65.543  0.00  0.00    -0.386 OA
ATOM     33  H   LIG    1        1.480  33.251  64.922  0.00  0.00    +0.210 HD
ENDBRANCH  27  32
BRANCH  26  34
ATOM     34  O   LIG    1        4.910  32.826  63.385  0.00  0.00    -0.384 OA
ATOM     35  H   LIG    1        5.329  32.324  64.103  0.00  0.00    +0.210 HD
ENDBRANCH  26  34
ENDBRANCH  24  25
ENDBRANCH  23  24
ENDBRANCH  22  23
TORSDOF 13
ENDMDL
MODEL 3
REMARK VINA RESULT:      -7.4      3.150      6.216
REMARK  Name = 9823887
REMARK                            x       y       z     vdW  Elec       q    Type
REMARK                         _______ _______ _______ _____ _____    ______ ____
ROOT
ATOM      1  O   LIG    1       -5.052  32.001  63.110  0.00  0.00    -0.341 OA
ATOM      2  C   LIG    1       -5.844  33.181  63.003  0.00  0.00    +0.282 C 
ATOM      3  C   LIG    1       -4.963  34.427  63.101  0.00  0.00    +0.201 C 
ATOM      4  C   LIG    1       -3.824  34.385  62.084  0.00  0.00    +0.179 C 
ATOM      5  C   LIG    1       -3.099  33.040  62.119  0.00  0.00    +0.177 C 
ATOM     22  C   LIG    1       -4.099  31.882  62.053  0.00  0.00    +0.178 C 
ENDROOT
BRANCH   5   6
ATOM      6  O   LIG    1       -2.206  32.956  61.012  0.00  0.00    -0.386 OA
ATOM      7  H   LIG    1       -1.311  33.165  61.333  0.00  0.00    +0.210 HD
ENDBRANCH   5   6
BRANCH   4   8
ATOM      8  O   LIG    1       -2.874  35.407  62.390  0.00  0.00    -0.386 OA
ATOM      9  H   LIG    1       -2.442  35.662  61.558  0.00  0.00    +0.210 HD
ENDBRANCH   4   8
BRANCH   3  10
ATOM     10  O   LIG    1       -5.779  35.572  62.853  0.00  0.00    -0.384 OA
ATOM     11  H   LIG    1       -5.960  36.004  63.704  0.00  0.00    +0.210 HD
ENDBRANCH   3  10
BRANCH   2  12
ATOM     12  O   LIG    1       -6.790  33.226  64.070  0.00  0.00    -0.345 OA
BRANCH  12  13
ATOM     13  C   LIG    1       -8.121  33.215  63.581  0.00  0.00    +0.190 C 
BRANCH  13  14
ATOM     14  C   LIG    1       -8.130  32.595  62.221  0.00  0.00    +0.001 C 
ATOM     15  C   LIG    1       -9.141  32.742  61.350  0.00  0.00    +0.006 C 
BRANCH  15  16
ATOM     16  C   LIG    1       -9.187  32.163  59.997  0.00  0.00    -0.025 A 
ATOM     17  C   LIG    1      -10.174  32.574  59.115  0.00  0.00    +0.008 A 
ATOM     18  C   LIG    1      -10.217  32.026  57.834  0.00  0.00    +0.001 A 
ATOM     19  C   LIG    1       -9.274  31.073  57.450  0.00  0.00    +0.000 A 
ATOM     20  C   LIG    1       -8.287  30.668  58.348  0.00  0.00    +0.001 A 
ATOM     21  C   LIG    1       -8.243  31.217  59.630  0.00  0.00    +0.008 A 
ENDBRANCH  15  16
ENDBRANCH  13  14
ENDBRANCH  12  13
ENDBRANCH   2  12
BRANCH  22  23
ATOM     23  C   LIG    1       -3.408  30.530  62.205  0.00  0.00    +0.197 C 
BRANCH  23  24
ATOM     24  O   LIG    1       -2.104  30.745  62.714  0.00  0.00    -0.346 OA
BRANCH  24  25
ATOM     25  C   LIG    1       -1.203  29.720  62.308  0.00  0.00    +0.281 C 
ATOM     26  C   LIG    1       -0.150  30.299  61.351  0.00  0.00    +0.201 C 
ATOM     27  C   LIG    1        0.888  31.153  62.086  0.00  0.00    +0.178 C 
ATOM     28  C   LIG    1        1.427  30.398  63.302  0.00  0.00    +0.171 C 
ATOM     29  C   LIG    1        0.282  29.902  64.176  0.00  0.00    +0.197 C 
ATOM     36  O   LIG    1       -0.596  29.065  63.427  0.00  0.00    -0.346 OA
BRANCH  28  30
ATOM     30  O   LIG    1        2.292  31.241  64.050  0.00  0.00    -0.387 OA
ATOM     31  H   LIG    1        2.138  32.155  63.755  0.00  0.00    +0.210 HD
ENDBRANCH  28  30
BRANCH  27  32
ATOM     32  O   LIG    1        0.285  32.372  62.517  0.00  0.00    -0.386 OA
ATOM     33  H   LIG    1        0.967  33.065  62.484  0.00  0.00    +0.210 HD
ENDBRANCH  27  32
BRANCH  26  34
ATOM     34  O   LIG    1        0.506  29.209  60.707  0.00  0.00    -0.384 OA
ATOM     35  H   LIG    1        0.254  28.387  61.159  0.00  0.00    +0.210 HD
ENDBRANCH  26  34
ENDBRANCH  24  25
ENDBRANCH  23  24
ENDBRANCH  22  23
TORSDOF 13
ENDMDL
MODEL 4
REMARK VINA RESULT:      -7.2      2.092      3.506
REMARK  Name = 9823887
REMARK                            x       y       z     vdW  Elec       q    Type
REMARK                         _______ _______ _______ _____ _____    ______ ____
ROOT
ATOM      1  O   LIG    1       -1.264  32.101  63.158  0.00  0.00    -0.341 OA
ATOM      2  C   LIG    1       -2.206  32.554  62.189  0.00  0.00    +0.282 C 
ATOM      3  C   LIG    1       -1.789  33.916  61.632  0.00  0.00    +0.201 C 
ATOM      4  C   LIG    1       -0.358  33.884  61.097  0.00  0.00    +0.179 C 
ATOM      5  C   LIG    1        0.596  33.244  62.105  0.00  0.00    +0.177 C 
ATOM     22  C   LIG    1        0.041  31.910  62.608  0.00  0.00    +0.178 C 
ENDROOT
BRANCH   5   6
ATOM      6  O   LIG    1        1.861  33.025  61.484  0.00  0.00    -0.386 OA
ATOM      7  H   LIG    1        2.133  32.110  61.675  0.00  0.00    +0.210 HD
ENDBRANCH   5   6
BRANCH   4   8
ATOM      8  O   LIG    1        0.088  35.219  60.852  0.00  0.00    -0.386 OA
ATOM      9  H   LIG    1        0.887  35.361  61.387  0.00  0.00    +0.210 HD
ENDBRANCH   4   8
BRANCH   3  10
ATOM     10  O   LIG    1       -2.684  34.259  60.575  0.00  0.00    -0.384 OA
ATOM     11  H   LIG    1       -3.143  35.079  60.823  0.00  0.00    +0.210 HD
ENDBRANCH   3  10
BRANCH   2  12
ATOM     12  O   LIG    1       -3.489  32.700  62.795  0.00  0.00    -0.345 OA
BRANCH  12  13
ATOM     13  C   LIG    1       -4.299  31.558  62.570  0.00  0.00    +0.190 C 
BRANCH  13  14
ATOM     14  C   LIG    1       -5.508  31.970  61.793  0.00  0.00    +0.001 C 
ATOM     15  C   LIG    1       -6.355  31.095  61.228  0.00  0.00    +0.006 C 
BRANCH  15  16
ATOM     16  C   LIG    1       -7.564  31.454  60.467  0.00  0.00    -0.025 A 
ATOM     17  C   LIG    1       -7.732  30.956  59.185  0.00  0.00    +0.008 A 
ATOM     18  C   LIG    1       -8.876  31.296  58.465  0.00  0.00    +0.001 A 
ATOM     19  C   LIG    1       -9.837  32.131  59.034  0.00  0.00    +0.000 A 
ATOM     20  C   LIG    1       -9.655  32.625  60.325  0.00  0.00    +0.001 A 
ATOM     21  C   LIG    1       -8.510  32.285  61.046  0.00  0.00    +0.008 A 
ENDBRANCH  15  16
ENDBRANCH  13  14
ENDBRANCH  12  13
ENDBRANCH   2  12
BRANCH  22  23
ATOM     23  C   LIG    1        0.919  31.308  63.702  0.00  0.00    +0.197 C 
BRANCH  23  24
ATOM     24  O   LIG    1        1.643  32.354  64.324  0.00  0.00    -0.346 OA
BRANCH  24  25
ATOM     25  C   LIG    1        2.412  31.881  65.424  0.00  0.00    +0.281 C 
ATOM     26  C   LIG    1        3.807  31.453  64.942  0.00  0.00    +0.201 C 
ATOM     27  C   LIG    1        4.699  32.656  64.618  0.00  0.00    +0.178 C 
ATOM     28  C   LIG    1        4.665  33.662  65.769  0.00  0.00    +0.171 C 
ATOM     29  C   LIG    1        3.228  34.018  66.129  0.00  0.00    +0.197 C 
ATOM     36  O   LIG    1        2.493  32.847  66.478  0.00  0.00    -0.346 OA
BRANCH  28  30
ATOM     30  O   LIG    1        5.390  34.830  65.411  0.00  0.00    -0.387 OA
ATOM     31  H   LIG    1        6.252  34.545  65.060  0.00  0.00    +0.210 HD
ENDBRANCH  28  30
BRANCH  27  32
ATOM     32  O   LIG    1        4.234  33.287  63.426  0.00  0.00    -0.386 OA
ATOM     33  H   LIG    1        4.251  34.248  63.578  0.00  0.00    +0.210 HD
ENDBRANCH  27  32
BRANCH  26  34
ATOM     34  O   LIG    1        4.413  30.680  65.975  0.00  0.00    -0.384 OA
ATOM     35  H   LIG    1        3.757  30.537  66.678  0.00  0.00    +0.210 HD
ENDBRANCH  26  34
ENDBRANCH  24  25
ENDBRANCH  23  24
ENDBRANCH  22  23
TORSDOF 13
ENDMDL
MODEL 5
REMARK VINA RESULT:      -7.2      2.377      3.475
REMARK  Name = 9823887
REMARK                            x       y       z     vdW  Elec       q    Type
REMARK                         _______ _______ _______ _____ _____    ______ ____
ROOT
ATOM      1  O   LIG    1       -1.602  32.317  61.834  0.00  0.00    -0.341 OA
ATOM      2  C   LIG    1       -2.777  31.583  62.170  0.00  0.00    +0.282 C 
ATOM      3  C   LIG    1       -2.828  30.268  61.391  0.00  0.00    +0.201 C 
ATOM      4  C   LIG    1       -1.548  29.456  61.584  0.00  0.00    +0.179 C 
ATOM      5  C   LIG    1       -0.307  30.321  61.370  0.00  0.00    +0.177 C 
ATOM     22  C   LIG    1       -0.403  31.619  62.175  0.00  0.00    +0.178 C 
ENDROOT
BRANCH   5   6
ATOM      6  O   LIG    1        0.850  29.596  61.781  0.00  0.00    -0.386 OA
ATOM      7  H   LIG    1        1.190  30.010  62.593  0.00  0.00    +0.210 HD
ENDBRANCH   5   6
BRANCH   4   8
ATOM      8  O   LIG    1       -1.513  28.390  60.634  0.00  0.00    -0.386 OA
ATOM      9  H   LIG    1       -0.701  28.495  60.109  0.00  0.00    +0.210 HD
ENDBRANCH   4   8
BRANCH   3  10
ATOM     10  O   LIG    1       -3.944  29.513  61.862  0.00  0.00    -0.384 OA
ATOM     11  H   LIG    1       -3.914  28.637  61.442  0.00  0.00    +0.210 HD
ENDBRANCH   3  10
BRANCH   2  12
ATOM     12  O   LIG    1       -3.935  32.343  61.828  0.00  0.00    -0.345 OA
BRANCH  12  13
ATOM     13  C   LIG    1       -5.032  32.019  62.667  0.00  0.00    +0.190 C 
BRANCH  13  14
ATOM     14  C   LIG    1       -6.299  32.206  61.896  0.00  0.00    +0.001 C 
ATOM     15  C   LIG    1       -6.669  31.411  60.881  0.00  0.00    +0.006 C 
BRANCH  15  16
ATOM     16  C   LIG    1       -7.913  31.548  60.103  0.00  0.00    -0.025 A 
ATOM     17  C   LIG    1       -8.957  32.297  60.621  0.00  0.00    +0.008 A 
ATOM     18  C   LIG    1      -10.134  32.427  59.885  0.00  0.00    +0.001 A 
ATOM     19  C   LIG    1      -10.253  31.806  58.642  0.00  0.00    +0.000 A 
ATOM     20  C   LIG    1       -9.193  31.055  58.134  0.00  0.00    +0.001 A 
ATOM     21  C   LIG    1       -8.015  30.925  58.870  0.00  0.00    +0.008 A 
ENDBRANCH  15  16
ENDBRANCH  13  14
ENDBRANCH  12  13
ENDBRANCH   2  12
BRANCH  22  23
ATOM     23  C   LIG    1        0.770  32.551  61.888  0.00  0.00    +0.197 C 
BRANCH  23  24
ATOM     24  O   LIG    1        1.472  32.779  63.096  0.00  0.00    -0.346 OA
BRANCH  24  25
ATOM     25  C   LIG    1        2.786  32.233  63.055  0.00  0.00    +0.281 C 
ATOM     26  C   LIG    1        3.754  33.141  63.829  0.00  0.00    +0.201 C 
ATOM     27  C   LIG    1        3.570  33.020  65.345  0.00  0.00    +0.178 C 
ATOM     28  C   LIG    1        3.554  31.547  65.758  0.00  0.00    +0.171 C 
ATOM     29  C   LIG    1        2.537  30.769  64.932  0.00  0.00    +0.197 C 
ATOM     36  O   LIG    1        2.824  30.886  63.541  0.00  0.00    -0.346 OA
BRANCH  28  30
ATOM     30  O   LIG    1        3.256  31.437  67.143  0.00  0.00    -0.387 OA
ATOM     31  H   LIG    1        3.508  32.277  67.565  0.00  0.00    +0.210 HD
ENDBRANCH  28  30
BRANCH  27  32
ATOM     32  O   LIG    1        2.338  33.630  65.727  0.00  0.00    -0.386 OA
ATOM     33  H   LIG    1        1.832  33.802  64.914  0.00  0.00    +0.210 HD
ENDBRANCH  27  32
BRANCH  26  34
ATOM     34  O   LIG    1        5.084  32.763  63.483  0.00  0.00    -0.384 OA
ATOM     35  H   LIG    1        5.055  32.253  62.656  0.00  0.00    +0.210 HD
ENDBRANCH  26  34
ENDBRANCH  24  25
ENDBRANCH  23  24
ENDBRANCH  22  23
TORSDOF 13
ENDMDL
MODEL 6
REMARK VINA RESULT:      -7.1      3.337     10.703
REMARK  Name = 9823887
REMARK                            x       y       z     vdW  Elec       q    Type
REMARK                         _______ _______ _______ _____ _____    ______ ____
ROOT
ATOM      1  O   LIG    1        3.597  31.092  65.912  0.00  0.00    -0.341 OA
ATOM      2  C   LIG    1        3.827  31.722  67.171  0.00  0.00    +0.282 C 
ATOM      3  C   LIG    1        4.975  32.726  67.065  0.00  0.00    +0.201 C 
ATOM      4  C   LIG    1        4.736  33.729  65.937  0.00  0.00    +0.179 C 
ATOM      5  C   LIG    1        4.335  33.021  64.643  0.00  0.00    +0.177 C 
ATOM     22  C   LIG    1        3.206  32.019  64.898  0.00  0.00    +0.178 C 
ENDROOT
BRANCH   5   6
ATOM      6  O   LIG    1        3.901  33.988  63.690  0.00  0.00    -0.386 OA
ATOM      7  H   LIG    1        3.154  33.608  63.196  0.00  0.00    +0.210 HD
ENDBRANCH   5   6
BRANCH   4   8
ATOM      8  O   LIG    1        5.938  34.459  65.686  0.00  0.00    -0.386 OA
ATOM      9  H   LIG    1        5.683  35.311  65.292  0.00  0.00    +0.210 HD
ENDBRANCH   4   8
BRANCH   3  10
ATOM     10  O   LIG    1        5.074  33.424  68.306  0.00  0.00    -0.384 OA
ATOM     11  H   LIG    1        5.247  34.360  68.113  0.00  0.00    +0.210 HD
ENDBRANCH   3  10
BRANCH   2  12
ATOM     12  O   LIG    1        4.188  30.741  68.141  0.00  0.00    -0.345 OA
BRANCH  12  13
ATOM     13  C   LIG    1        4.624  29.540  67.526  0.00  0.00    +0.190 C 
BRANCH  13  14
ATOM     14  C   LIG    1        6.071  29.335  67.842  0.00  0.00    +0.001 C 
ATOM     15  C   LIG    1        6.544  29.229  69.094  0.00  0.00    +0.006 C 
BRANCH  15  16
ATOM     16  C   LIG    1        7.956  29.013  69.453  0.00  0.00    -0.025 A 
ATOM     17  C   LIG    1        8.883  30.011  69.197  0.00  0.00    +0.008 A 
ATOM     18  C   LIG    1       10.219  29.805  69.537  0.00  0.00    +0.001 A 
ATOM     19  C   LIG    1       10.613  28.604  70.127  0.00  0.00    +0.000 A 
ATOM     20  C   LIG    1        9.669  27.608  70.378  0.00  0.00    +0.001 A 
ATOM     21  C   LIG    1        8.332  27.814  70.038  0.00  0.00    +0.008 A 
ENDBRANCH  15  16
ENDBRANCH  13  14
ENDBRANCH  12  13
ENDBRANCH   2  12
BRANCH  22  23
ATOM     23  C   LIG    1        2.868  31.217  63.645  0.00  0.00    +0.197 C 
BRANCH  23  24
ATOM     24  O   LIG    1        1.460  31.103  63.549  0.00  0.00    -0.346 OA
BRANCH  24  25
ATOM     25  C   LIG    1        0.838  32.372  63.375  0.00  0.00    +0.281 C 
ATOM     26  C   LIG    1        1.006  32.841  61.922  0.00  0.00    +0.201 C 
ATOM     27  C   LIG    1        0.094  32.074  60.959  0.00  0.00    +0.178 C 
ATOM     28  C   LIG    1       -1.338  32.049  61.497  0.00  0.00    +0.171 C 
ATOM     29  C   LIG    1       -1.363  31.542  62.934  0.00  0.00    +0.197 C 
ATOM     36  O   LIG    1       -0.539  32.353  63.767  0.00  0.00    -0.346 OA
BRANCH  28  30
ATOM     30  O   LIG    1       -2.151  31.230  60.668  0.00  0.00    -0.387 OA
ATOM     31  H   LIG    1       -2.014  30.307  60.943  0.00  0.00    +0.210 HD
ENDBRANCH  28  30
BRANCH  27  32
ATOM     32  O   LIG    1        0.567  30.735  60.818  0.00  0.00    -0.386 OA
ATOM     33  H   LIG    1        0.047  30.176  61.420  0.00  0.00    +0.210 HD
ENDBRANCH  27  32
BRANCH  26  34
ATOM     34  O   LIG    1        0.688  34.230  61.868  0.00  0.00    -0.384 OA
ATOM     35  H   LIG    1        0.218  34.406  61.036  0.00  0.00    +0.210 HD
ENDBRANCH  26  34
ENDBRANCH  24  25
ENDBRANCH  23  24
ENDBRANCH  22  23
TORSDOF 13
ENDMDL
MODEL 7
REMARK VINA RESULT:      -7.0      1.406      2.432
REMARK  Name = 9823887
REMARK                            x       y       z     vdW  Elec       q    Type
REMARK                         _______ _______ _______ _____ _____    ______ ____
ROOT
ATOM      1  O   LIG    1       -0.151  32.767  61.910  0.00  0.00    -0.341 OA
ATOM      2  C   LIG    1       -1.508  32.330  61.889  0.00  0.00    +0.282 C 
ATOM      3  C   LIG    1       -1.655  31.083  61.016  0.00  0.00    +0.201 C 
ATOM      4  C   LIG    1       -0.685  29.983  61.447  0.00  0.00    +0.179 C 
ATOM      5  C   LIG    1        0.732  30.529  61.613  0.00  0.00    +0.177 C 
ATOM     22  C   LIG    1        0.730  31.794  62.475  0.00  0.00    +0.178 C 
ENDROOT
BRANCH   5   6
ATOM      6  O   LIG    1        1.549  29.539  62.232  0.00  0.00    -0.386 OA
ATOM      7  H   LIG    1        1.513  29.679  63.195  0.00  0.00    +0.210 HD
ENDBRANCH   5   6
BRANCH   4   8
ATOM      8  O   LIG    1       -0.651  28.961  60.450  0.00  0.00    -0.386 OA
ATOM      9  H   LIG    1       -1.556  28.618  60.353  0.00  0.00    +0.210 HD
ENDBRANCH   4   8
BRANCH   3  10
ATOM     10  O   LIG    1       -2.996  30.608  61.137  0.00  0.00    -0.384 OA
ATOM     11  H   LIG    1       -3.336  30.886  62.003  0.00  0.00    +0.210 HD
ENDBRANCH   3  10
BRANCH   2  12
ATOM     12  O   LIG    1       -2.335  33.353  61.339  0.00  0.00    -0.345 OA
BRANCH  12  13
ATOM     13  C   LIG    1       -2.857  34.196  62.353  0.00  0.00    +0.190 C 
BRANCH  13  14
ATOM     14  C   LIG    1       -4.337  34.306  62.175  0.00  0.00    +0.001 C 
ATOM     15  C   LIG    1       -5.186  33.297  62.426  0.00  0.00    +0.006 C 
BRANCH  15  16
ATOM     16  C   LIG    1       -6.651  33.363  62.279  0.00  0.00    -0.025 A 
ATOM     17  C   LIG    1       -7.321  34.514  62.664  0.00  0.00    +0.008 A 
ATOM     18  C   LIG    1       -8.707  34.576  62.524  0.00  0.00    +0.001 A 
ATOM     19  C   LIG    1       -9.405  33.487  62.003  0.00  0.00    +0.000 A 
ATOM     20  C   LIG    1       -8.718  32.336  61.620  0.00  0.00    +0.001 A 
ATOM     21  C   LIG    1       -7.331  32.274  61.759  0.00  0.00    +0.008 A 
ENDBRANCH  15  16
ENDBRANCH  13  14
ENDBRANCH  12  13
ENDBRANCH   2  12
BRANCH  22  23
ATOM     23  C   LIG    1        2.118  32.423  62.559  0.00  0.00    +0.197 C 
BRANCH  23  24
ATOM     24  O   LIG    1        2.848  31.768  63.580  0.00  0.00    -0.346 OA
BRANCH  24  25
ATOM     25  C   LIG    1        2.465  32.217  64.875  0.00  0.00    +0.281 C 
ATOM     26  C   LIG    1        3.139  31.350  65.950  0.00  0.00    +0.201 C 
ATOM     27  C   LIG    1        4.631  31.669  66.096  0.00  0.00    +0.178 C 
ATOM     28  C   LIG    1        4.837  33.179  66.223  0.00  0.00    +0.171 C 
ATOM     29  C   LIG    1        4.141  33.914  65.085  0.00  0.00    +0.197 C 
ATOM     36  O   LIG    1        2.748  33.608  65.066  0.00  0.00    -0.346 OA
BRANCH  28  30
ATOM     30  O   LIG    1        6.226  33.477  66.230  0.00  0.00    -0.387 OA
ATOM     31  H   LIG    1        6.321  34.434  66.083  0.00  0.00    +0.210 HD
ENDBRANCH  28  30
BRANCH  27  32
ATOM     32  O   LIG    1        5.335  31.192  64.950  0.00  0.00    -0.386 OA
ATOM     33  H   LIG    1        4.982  30.312  64.735  0.00  0.00    +0.210 HD
ENDBRANCH  27  32
BRANCH  26  34
ATOM     34  O   LIG    1        2.480  31.595  67.190  0.00  0.00    -0.384 OA
ATOM     35  H   LIG    1        2.456  30.765  67.695  0.00  0.00    +0.210 HD
ENDBRANCH  26  34
ENDBRANCH  24  25
ENDBRANCH  23  24
ENDBRANCH  22  23
TORSDOF 13
ENDMDL
MODEL 8
REMARK VINA RESULT:      -7.0      3.755     11.106
REMARK  Name = 9823887
REMARK                            x       y       z     vdW  Elec       q    Type
REMARK                         _______ _______ _______ _____ _____    ______ ____
ROOT
ATOM      1  O   LIG    1        2.824  30.284  66.126  0.00  0.00    -0.341 OA
ATOM      2  C   LIG    1        4.090  30.581  66.709  0.00  0.00    +0.282 C 
ATOM      3  C   LIG    1        4.919  31.457  65.769  0.00  0.00    +0.201 C 
ATOM      4  C   LIG    1        4.150  32.710  65.353  0.00  0.00    +0.179 C 
ATOM      5  C   LIG    1        2.738  32.363  64.884  0.00  0.00    +0.177 C 
ATOM     22  C   LIG    1        2.037  31.454  65.897  0.00  0.00    +0.178 C 
ENDROOT
BRANCH   5   6
ATOM      6  O   LIG    1        1.985  33.563  64.727  0.00  0.00    -0.386 OA
ATOM      7  H   LIG    1        2.407  34.255  65.266  0.00  0.00    +0.210 HD
ENDBRANCH   5   6
BRANCH   4   8
ATOM      8  O   LIG    1        4.831  33.349  64.271  0.00  0.00    -0.386 OA
ATOM      9  H   LIG    1        5.377  34.059  64.649  0.00  0.00    +0.210 HD
ENDBRANCH   4   8
BRANCH   3  10
ATOM     10  O   LIG    1        6.114  31.838  66.451  0.00  0.00    -0.384 OA
ATOM     11  H   LIG    1        5.999  31.640  67.395  0.00  0.00    +0.210 HD
ENDBRANCH   3  10
BRANCH   2  12
ATOM     12  O   LIG    1        4.812  29.372  66.936  0.00  0.00    -0.345 OA
BRANCH  12  13
ATOM     13  C   LIG    1        5.117  29.202  68.311  0.00  0.00    +0.190 C 
BRANCH  13  14
ATOM     14  C   LIG    1        6.591  29.003  68.457  0.00  0.00    +0.001 C 
ATOM     15  C   LIG    1        7.350  29.708  69.310  0.00  0.00    +0.006 C 
BRANCH  15  16
ATOM     16  C   LIG    1        8.801  29.537  69.498  0.00  0.00    -0.025 A 
ATOM     17  C   LIG    1        9.631  30.643  69.420  0.00  0.00    +0.008 A 
ATOM     18  C   LIG    1       11.005  30.480  69.599  0.00  0.00    +0.001 A 
ATOM     19  C   LIG    1       11.530  29.213  69.851  0.00  0.00    +0.000 A 
ATOM     20  C   LIG    1       10.682  28.108  69.926  0.00  0.00    +0.001 A 
ATOM     21  C   LIG    1        9.308  28.271  69.748  0.00  0.00    +0.008 A 
ENDBRANCH  15  16
ENDBRANCH  13  14
ENDBRANCH  12  13
ENDBRANCH   2  12
BRANCH  22  23
ATOM     23  C   LIG    1        0.670  30.999  65.396  0.00  0.00    +0.197 C 
BRANCH  23  24
ATOM     24  O   LIG    1        0.694  30.972  63.980  0.00  0.00    -0.346 OA
BRANCH  24  25
ATOM     25  C   LIG    1        0.385  29.679  63.472  0.00  0.00    +0.281 C 
ATOM     26  C   LIG    1       -1.099  29.363  63.713  0.00  0.00    +0.201 C 
ATOM     27  C   LIG    1       -2.016  30.141  62.763  0.00  0.00    +0.178 C 
ATOM     28  C   LIG    1       -1.524  29.999  61.322  0.00  0.00    +0.171 C 
ATOM     29  C   LIG    1       -0.049  30.365  61.220  0.00  0.00    +0.197 C 
ATOM     36  O   LIG    1        0.733  29.549  62.089  0.00  0.00    -0.346 OA
BRANCH  28  30
ATOM     30  O   LIG    1       -2.300  30.823  60.463  0.00  0.00    -0.387 OA
ATOM     31  H   LIG    1       -2.062  30.599  59.547  0.00  0.00    +0.210 HD
ENDBRANCH  28  30
BRANCH  27  32
ATOM     32  O   LIG    1       -2.019  31.520  63.126  0.00  0.00    -0.386 OA
ATOM     33  H   LIG    1       -1.331  31.647  63.802  0.00  0.00    +0.210 HD
ENDBRANCH  27  32
BRANCH  26  34
ATOM     34  O   LIG    1       -1.290  27.964  63.514  0.00  0.00    -0.384 OA
ATOM     35  H   LIG    1       -2.068  27.838  62.946  0.00  0.00    +0.210 HD
ENDBRANCH  26  34
ENDBRANCH  24  25
ENDBRANCH  23  24
ENDBRANCH  22  23
TORSDOF 13
ENDMDL
MODEL 9
REMARK VINA RESULT:      -6.9      3.442      8.352
REMARK  Name = 9823887
REMARK                            x       y       z     vdW  Elec       q    Type
REMARK                         _______ _______ _______ _____ _____    ______ ____
ROOT
ATOM      1  O   LIG    1       -2.328  32.406  61.469  0.00  0.00    -0.341 OA
ATOM      2  C   LIG    1       -1.017  32.965  61.497  0.00  0.00    +0.282 C 
ATOM      3  C   LIG    1       -1.025  34.379  60.915  0.00  0.00    +0.201 C 
ATOM      4  C   LIG    1       -2.060  35.262  61.611  0.00  0.00    +0.179 C 
ATOM      5  C   LIG    1       -3.415  34.560  61.701  0.00  0.00    +0.177 C 
ATOM     22  C   LIG    1       -3.257  33.145  62.263  0.00  0.00    +0.178 C 
ENDROOT
BRANCH   5   6
ATOM      6  O   LIG    1       -4.279  35.311  62.550  0.00  0.00    -0.386 OA
ATOM      7  H   LIG    1       -4.746  34.685  63.131  0.00  0.00    +0.210 HD
ENDBRANCH   5   6
BRANCH   4   8
ATOM      8  O   LIG    1       -2.236  36.467  60.864  0.00  0.00    -0.386 OA
ATOM      9  H   LIG    1       -3.176  36.525  60.623  0.00  0.00    +0.210 HD
ENDBRANCH   4   8
BRANCH   3  10
ATOM     10  O   LIG    1        0.275  34.942  61.092  0.00  0.00    -0.384 OA
ATOM     11  H   LIG    1        0.916  34.214  61.130  0.00  0.00    +0.210 HD
ENDBRANCH   3  10
BRANCH   2  12
ATOM     12  O   LIG    1       -0.135  32.169  60.709  0.00  0.00    -0.345 OA
BRANCH  12  13
ATOM     13  C   LIG    1        0.105  30.909  61.315  0.00  0.00    +0.190 C 
BRANCH  13  14
ATOM     14  C   LIG    1        0.906  31.118  62.559  0.00  0.00    +0.001 C 
ATOM     15  C   LIG    1        1.976  31.925  62.620  0.00  0.00    +0.006 C 
BRANCH  15  16
ATOM     16  C   LIG    1        2.786  32.172  63.826  0.00  0.00    -0.025 A 
ATOM     17  C   LIG    1        2.487  33.258  64.633  0.00  0.00    +0.008 A 
ATOM     18  C   LIG    1        3.254  33.492  65.774  0.00  0.00    +0.001 A 
ATOM     19  C   LIG    1        4.310  32.638  66.093  0.00  0.00    +0.000 A 
ATOM     20  C   LIG    1        4.599  31.550  65.271  0.00  0.00    +0.001 A 
ATOM     21  C   LIG    1        3.832  31.315  64.129  0.00  0.00    +0.008 A 
ENDBRANCH  15  16
ENDBRANCH  13  14
ENDBRANCH  12  13
ENDBRANCH   2  12
BRANCH  22  23
ATOM     23  C   LIG    1       -4.579  32.383  62.254  0.00  0.00    +0.197 C 
BRANCH  23  24
ATOM     24  O   LIG    1       -4.311  31.018  61.989  0.00  0.00    -0.346 OA
BRANCH  24  25
ATOM     25  C   LIG    1       -4.648  30.189  63.095  0.00  0.00    +0.281 C 
ATOM     26  C   LIG    1       -4.691  28.718  62.653  0.00  0.00    +0.201 C 
ATOM     27  C   LIG    1       -3.289  28.141  62.431  0.00  0.00    +0.178 C 
ATOM     28  C   LIG    1       -2.394  28.456  63.631  0.00  0.00    +0.171 C 
ATOM     29  C   LIG    1       -2.424  29.946  63.946  0.00  0.00    +0.197 C 
ATOM     36  O   LIG    1       -3.758  30.380  64.201  0.00  0.00    -0.346 OA
BRANCH  28  30
ATOM     30  O   LIG    1       -1.065  28.031  63.366  0.00  0.00    -0.387 OA
ATOM     31  H   LIG    1       -1.104  27.373  62.652  0.00  0.00    +0.210 HD
ENDBRANCH  28  30
BRANCH  27  32
ATOM     32  O   LIG    1       -2.718  28.712  61.255  0.00  0.00    -0.386 OA
ATOM     33  H   LIG    1       -2.402  29.602  61.486  0.00  0.00    +0.210 HD
ENDBRANCH  27  32
BRANCH  26  34
ATOM     34  O   LIG    1       -5.354  27.971  63.670  0.00  0.00    -0.384 OA
ATOM     35  H   LIG    1       -4.720  27.341  64.052  0.00  0.00    +0.210 HD
ENDBRANCH  26  34
ENDBRANCH  24  25
ENDBRANCH  23  24
ENDBRANCH  22  23
TORSDOF 13
ENDMDL
