MODEL 1
REMARK VINA RESULT:      -5.1      0.000      0.000
REMARK  Name = 445858
REMARK                            x       y       z     vdW  Elec       q    Type
REMARK                         _______ _______ _______ _____ _____    ______ ____
ROOT
ATOM      3  C   LIG    1       13.970 145.963  28.754  0.00  0.00    +0.162 A 
ATOM      4  C   LIG    1       15.025 145.936  27.841  0.00  0.00    +0.158 A 
ATOM      5  C   LIG    1       15.352 144.748  27.188  0.00  0.00    +0.050 A 
ATOM      6  C   LIG    1       14.624 143.586  27.448  0.00  0.00    +0.012 A 
ATOM      7  C   LIG    1       13.570 143.614  28.360  0.00  0.00    -0.021 A 
ATOM     16  C   LIG    1       13.242 144.802  29.013  0.00  0.00    +0.057 A 
ENDROOT
BRANCH   3   1
ATOM      1  O   LIG    1       13.642 147.118  29.398  0.00  0.00    -0.491 OA
ATOM      2  C   LIG    1       12.820 147.001  30.558  0.00  0.00    +0.277 C 
ENDBRANCH   3   1
BRANCH   7   8
ATOM      8  C   LIG    1       12.810 142.403  28.629  0.00  0.00    +0.015 C 
ATOM      9  C   LIG    1       12.821 141.287  27.867  0.00  0.00    +0.092 C 
BRANCH   9  10
ATOM     10  C   LIG    1       12.009 140.116  28.256  0.00  0.00    +0.330 C 
ATOM     11  O   LIG    1       10.792 140.040  28.237  0.00  0.00    -0.246 OA
BRANCH  10  12
ATOM     12  O   LIG    1       12.841 139.121  28.643  0.00  0.00    -0.478 OA
ATOM     13  H   LIG    1       12.660 138.828  29.562  0.00  0.00    +0.295 HD
ENDBRANCH  10  12
ENDBRANCH   9  10
ENDBRANCH   7   8
BRANCH   4  14
ATOM     14  O   LIG    1       15.744 147.063  27.580  0.00  0.00    -0.503 OA
ATOM     15  H   LIG    1       15.131 147.808  27.455  0.00  0.00    +0.292 HD
ENDBRANCH   4  14
TORSDOF 5
ENDMDL
MODEL 2
REMARK VINA RESULT:      -4.9     23.531     25.440
REMARK  Name = 445858
REMARK                            x       y       z     vdW  Elec       q    Type
REMARK                         _______ _______ _______ _____ _____    ______ ____
ROOT
ATOM      3  C   LIG    1       13.221 165.158  13.016  0.00  0.00    +0.162 A 
ATOM      4  C   LIG    1       12.222 165.258  13.985  0.00  0.00    +0.158 A 
ATOM      5  C   LIG    1       12.458 164.794  15.278  0.00  0.00    +0.050 A 
ATOM      6  C   LIG    1       13.693 164.231  15.604  0.00  0.00    +0.012 A 
ATOM      7  C   LIG    1       14.690 164.132  14.636  0.00  0.00    -0.021 A 
ATOM     16  C   LIG    1       14.456 164.596  13.341  0.00  0.00    +0.057 A 
ENDROOT
BRANCH   3   1
ATOM      1  O   LIG    1       13.002 165.607  11.748  0.00  0.00    -0.491 OA
ATOM      2  C   LIG    1       12.771 164.621  10.743  0.00  0.00    +0.277 C 
ENDBRANCH   3   1
BRANCH   7   8
ATOM      8  C   LIG    1       15.977 163.546  14.975  0.00  0.00    +0.015 C 
ATOM      9  C   LIG    1       16.898 164.101  15.795  0.00  0.00    +0.092 C 
BRANCH   9  10
ATOM     10  C   LIG    1       18.166 163.398  16.069  0.00  0.00    +0.330 C 
ATOM     11  O   LIG    1       18.340 162.505  16.881  0.00  0.00    -0.246 OA
BRANCH  10  12
ATOM     12  O   LIG    1       19.127 163.906  15.261  0.00  0.00    -0.478 OA
ATOM     13  H   LIG    1       18.747 164.363  14.481  0.00  0.00    +0.295 HD
ENDBRANCH  10  12
ENDBRANCH   9  10
ENDBRANCH   7   8
BRANCH   4  14
ATOM     14  O   LIG    1       11.013 165.804  13.679  0.00  0.00    -0.503 OA
ATOM     15  H   LIG    1       10.460 165.820  14.479  0.00  0.00    +0.292 HD
ENDBRANCH   4  14
TORSDOF 5
ENDMDL
MODEL 3
REMARK VINA RESULT:      -4.9     14.662     17.809
REMARK  Name = 445858
REMARK                            x       y       z     vdW  Elec       q    Type
REMARK                         _______ _______ _______ _____ _____    ______ ____
ROOT
ATOM      3  C   LIG    1       23.223 155.407  32.892  0.00  0.00    +0.162 A 
ATOM      4  C   LIG    1       24.537 155.181  33.303  0.00  0.00    +0.158 A 
ATOM      5  C   LIG    1       25.576 155.936  32.761  0.00  0.00    +0.050 A 
ATOM      6  C   LIG    1       25.303 156.918  31.808  0.00  0.00    +0.012 A 
ATOM      7  C   LIG    1       23.990 157.143  31.397  0.00  0.00    -0.021 A 
ATOM     16  C   LIG    1       22.949 156.388  31.939  0.00  0.00    +0.057 A 
ENDROOT
BRANCH   3   1
ATOM      1  O   LIG    1       22.199 154.674  33.413  0.00  0.00    -0.491 OA
ATOM      2  C   LIG    1       20.889 154.951  32.921  0.00  0.00    +0.277 C 
ENDBRANCH   3   1
BRANCH   7   8
ATOM      8  C   LIG    1       23.705 158.167  30.405  0.00  0.00    +0.015 C 
ATOM      9  C   LIG    1       23.163 159.378  30.664  0.00  0.00    +0.092 C 
BRANCH   9  10
ATOM     10  C   LIG    1       22.931 160.336  29.565  0.00  0.00    +0.330 C 
ATOM     11  O   LIG    1       22.548 161.489  29.677  0.00  0.00    -0.246 OA
BRANCH  10  12
ATOM     12  O   LIG    1       23.216 159.727  28.390  0.00  0.00    -0.478 OA
ATOM     13  H   LIG    1       23.741 158.908  28.519  0.00  0.00    +0.295 HD
ENDBRANCH  10  12
ENDBRANCH   9  10
ENDBRANCH   7   8
BRANCH   4  14
ATOM     14  O   LIG    1       24.817 154.224  34.232  0.00  0.00    -0.503 OA
ATOM     15  H   LIG    1       25.062 154.657  35.068  0.00  0.00    +0.292 HD
ENDBRANCH   4  14
TORSDOF 5
ENDMDL
MODEL 4
REMARK VINA RESULT:      -4.8     24.129     26.574
REMARK  Name = 445858
REMARK                            x       y       z     vdW  Elec       q    Type
REMARK                         _______ _______ _______ _____ _____    ______ ____
ROOT
ATOM      3  C   LIG    1       12.415 164.566  14.501  0.00  0.00    +0.162 A 
ATOM      4  C   LIG    1       13.310 163.704  15.135  0.00  0.00    +0.158 A 
ATOM      5  C   LIG    1       14.452 163.268  14.464  0.00  0.00    +0.050 A 
ATOM      6  C   LIG    1       14.699 163.694  13.158  0.00  0.00    +0.012 A 
ATOM      7  C   LIG    1       13.804 164.555  12.525  0.00  0.00    -0.021 A 
ATOM     16  C   LIG    1       12.662 164.991  13.195  0.00  0.00    +0.057 A 
ENDROOT
BRANCH   3   1
ATOM      1  O   LIG    1       11.295 164.998  15.146  0.00  0.00    -0.491 OA
ATOM      2  C   LIG    1       10.734 166.235  14.712  0.00  0.00    +0.277 C 
ENDBRANCH   3   1
BRANCH   7   8
ATOM      8  C   LIG    1       14.063 164.999  11.164  0.00  0.00    +0.015 C 
ATOM      9  C   LIG    1       13.429 164.546  10.060  0.00  0.00    +0.092 C 
BRANCH   9  10
ATOM     10  C   LIG    1       13.777 165.087   8.731  0.00  0.00    +0.330 C 
ATOM     11  O   LIG    1       13.459 164.617   7.651  0.00  0.00    -0.246 OA
BRANCH  10  12
ATOM     12  O   LIG    1       14.517 166.208   8.899  0.00  0.00    -0.478 OA
ATOM     13  H   LIG    1       14.638 166.429   9.847  0.00  0.00    +0.295 HD
ENDBRANCH  10  12
ENDBRANCH   9  10
ENDBRANCH   7   8
BRANCH   4  14
ATOM     14  O   LIG    1       13.079 163.280  16.409  0.00  0.00    -0.503 OA
ATOM     15  H   LIG    1       12.770 164.034  16.942  0.00  0.00    +0.292 HD
ENDBRANCH   4  14
TORSDOF 5
ENDMDL
MODEL 5
REMARK VINA RESULT:      -4.8     20.478     21.884
REMARK  Name = 445858
REMARK                            x       y       z     vdW  Elec       q    Type
REMARK                         _______ _______ _______ _____ _____    ______ ____
ROOT
ATOM      3  C   LIG    1       30.731 140.874  13.367  0.00  0.00    +0.162 A 
ATOM      4  C   LIG    1       30.217 142.170  13.298  0.00  0.00    +0.158 A 
ATOM      5  C   LIG    1       28.840 142.368  13.199  0.00  0.00    +0.050 A 
ATOM      6  C   LIG    1       27.977 141.272  13.170  0.00  0.00    +0.012 A 
ATOM      7  C   LIG    1       28.491 139.979  13.239  0.00  0.00    -0.021 A 
ATOM     16  C   LIG    1       29.868 139.779  13.338  0.00  0.00    +0.057 A 
ENDROOT
BRANCH   3   1
ATOM      1  O   LIG    1       32.075 140.667  13.463  0.00  0.00    -0.491 OA
ATOM      2  C   LIG    1       32.602 140.428  14.766  0.00  0.00    +0.277 C 
ENDBRANCH   3   1
BRANCH   7   8
ATOM      8  C   LIG    1       27.592 138.836  13.209  0.00  0.00    +0.015 C 
ATOM      9  C   LIG    1       26.268 138.890  12.942  0.00  0.00    +0.092 C 
BRANCH   9  10
ATOM     10  C   LIG    1       25.463 137.653  12.933  0.00  0.00    +0.330 C 
ATOM     11  O   LIG    1       25.890 136.510  12.919  0.00  0.00    -0.246 OA
BRANCH  10  12
ATOM     12  O   LIG    1       24.151 137.987  12.943  0.00  0.00    -0.478 OA
ATOM     13  H   LIG    1       23.932 138.634  12.239  0.00  0.00    +0.295 HD
ENDBRANCH  10  12
ENDBRANCH   9  10
ENDBRANCH   7   8
BRANCH   4  14
ATOM     14  O   LIG    1       31.050 143.247  13.324  0.00  0.00    -0.503 OA
ATOM     15  H   LIG    1       31.909 142.993  12.946  0.00  0.00    +0.292 HD
ENDBRANCH   4  14
TORSDOF 5
ENDMDL
MODEL 6
REMARK VINA RESULT:      -4.8     17.358     18.736
REMARK  Name = 445858
REMARK                            x       y       z     vdW  Elec       q    Type
REMARK                         _______ _______ _______ _____ _____    ______ ____
ROOT
ATOM      3  C   LIG    1       29.412 137.254  29.332  0.00  0.00    +0.162 A 
ATOM      4  C   LIG    1       28.960 135.977  29.668  0.00  0.00    +0.158 A 
ATOM      5  C   LIG    1       29.075 134.933  28.750  0.00  0.00    +0.050 A 
ATOM      6  C   LIG    1       29.640 135.165  27.496  0.00  0.00    +0.012 A 
ATOM      7  C   LIG    1       30.091 136.441  27.160  0.00  0.00    -0.021 A 
ATOM     16  C   LIG    1       29.977 137.486  28.077  0.00  0.00    +0.057 A 
ENDROOT
BRANCH   3   1
ATOM      1  O   LIG    1       29.304 138.282  30.220  0.00  0.00    -0.491 OA
ATOM      2  C   LIG    1       28.488 139.386  29.835  0.00  0.00    +0.277 C 
ENDBRANCH   3   1
BRANCH   7   8
ATOM      8  C   LIG    1       30.681 136.683  25.853  0.00  0.00    +0.015 C 
ATOM      9  C   LIG    1       32.002 136.629  25.569  0.00  0.00    +0.092 C 
BRANCH   9  10
ATOM     10  C   LIG    1       32.475 136.886  24.195  0.00  0.00    +0.330 C 
ATOM     11  O   LIG    1       33.043 137.891  23.800  0.00  0.00    -0.246 OA
BRANCH  10  12
ATOM     12  O   LIG    1       32.176 135.813  23.425  0.00  0.00    -0.478 OA
ATOM     13  H   LIG    1       31.294 135.442  23.639  0.00  0.00    +0.295 HD
ENDBRANCH  10  12
ENDBRANCH   9  10
ENDBRANCH   7   8
BRANCH   4  14
ATOM     14  O   LIG    1       28.406 135.738  30.889  0.00  0.00    -0.503 OA
ATOM     15  H   LIG    1       28.997 136.086  31.579  0.00  0.00    +0.292 HD
ENDBRANCH   4  14
TORSDOF 5
ENDMDL
MODEL 7
REMARK VINA RESULT:      -4.8     33.484     36.516
REMARK  Name = 445858
REMARK                            x       y       z     vdW  Elec       q    Type
REMARK                         _______ _______ _______ _____ _____    ______ ____
ROOT
ATOM      3  C   LIG    1       31.162 172.701  18.701  0.00  0.00    +0.162 A 
ATOM      4  C   LIG    1       30.508 171.693  19.410  0.00  0.00    +0.158 A 
ATOM      5  C   LIG    1       31.128 171.100  20.510  0.00  0.00    +0.050 A 
ATOM      6  C   LIG    1       32.402 171.515  20.900  0.00  0.00    +0.012 A 
ATOM      7  C   LIG    1       33.055 172.522  20.191  0.00  0.00    -0.021 A 
ATOM     16  C   LIG    1       32.436 173.116  19.092  0.00  0.00    +0.057 A 
ENDROOT
BRANCH   3   1
ATOM      1  O   LIG    1       30.567 173.287  17.624  0.00  0.00    -0.491 OA
ATOM      2  C   LIG    1       31.094 174.542  17.197  0.00  0.00    +0.277 C 
ENDBRANCH   3   1
BRANCH   7   8
ATOM      8  C   LIG    1       34.382 172.954  20.599  0.00  0.00    +0.015 C 
ATOM      9  C   LIG    1       35.320 173.480  19.779  0.00  0.00    +0.092 C 
BRANCH   9  10
ATOM     10  C   LIG    1       36.630 173.891  20.321  0.00  0.00    +0.330 C 
ATOM     11  O   LIG    1       36.905 174.073  21.495  0.00  0.00    -0.246 OA
BRANCH  10  12
ATOM     12  O   LIG    1       37.498 174.036  19.292  0.00  0.00    -0.478 OA
ATOM     13  H   LIG    1       38.420 174.158  19.604  0.00  0.00    +0.295 HD
ENDBRANCH  10  12
ENDBRANCH   9  10
ENDBRANCH   7   8
BRANCH   4  14
ATOM     14  O   LIG    1       29.265 171.279  19.038  0.00  0.00    -0.503 OA
ATOM     15  H   LIG    1       28.768 172.041  18.694  0.00  0.00    +0.292 HD
ENDBRANCH   4  14
TORSDOF 5
ENDMDL
MODEL 8
REMARK VINA RESULT:      -4.7      9.713     11.362
REMARK  Name = 445858
REMARK                            x       y       z     vdW  Elec       q    Type
REMARK                         _______ _______ _______ _____ _____    ______ ____
ROOT
ATOM      3  C   LIG    1        8.471 140.638  21.947  0.00  0.00    +0.162 A 
ATOM      4  C   LIG    1        9.690 141.299  21.794  0.00  0.00    +0.158 A 
ATOM      5  C   LIG    1       10.110 141.702  20.527  0.00  0.00    +0.050 A 
ATOM      6  C   LIG    1        9.312 141.444  19.412  0.00  0.00    +0.012 A 
ATOM      7  C   LIG    1        8.094 140.783  19.565  0.00  0.00    -0.021 A 
ATOM     16  C   LIG    1        7.672 140.380  20.832  0.00  0.00    +0.057 A 
ENDROOT
BRANCH   3   1
ATOM      1  O   LIG    1        8.050 140.239  23.180  0.00  0.00    -0.491 OA
ATOM      2  C   LIG    1        7.926 138.835  23.398  0.00  0.00    +0.277 C 
ENDBRANCH   3   1
BRANCH   7   8
ATOM      8  C   LIG    1        7.261 140.515  18.404  0.00  0.00    +0.015 C 
ATOM      9  C   LIG    1        7.080 141.356  17.360  0.00  0.00    +0.092 C 
BRANCH   9  10
ATOM     10  C   LIG    1        6.214 140.960  16.232  0.00  0.00    +0.330 C 
ATOM     11  O   LIG    1        6.376 140.002  15.495  0.00  0.00    -0.246 OA
BRANCH  10  12
ATOM     12  O   LIG    1        5.190 141.841  16.142  0.00  0.00    -0.478 OA
ATOM     13  H   LIG    1        4.327 141.391  16.024  0.00  0.00    +0.295 HD
ENDBRANCH  10  12
ENDBRANCH   9  10
ENDBRANCH   7   8
BRANCH   4  14
ATOM     14  O   LIG    1       10.479 141.556  22.875  0.00  0.00    -0.503 OA
ATOM     15  H   LIG    1       11.251 140.964  22.851  0.00  0.00    +0.292 HD
ENDBRANCH   4  14
TORSDOF 5
ENDMDL
MODEL 9
REMARK VINA RESULT:      -4.6     20.190     23.087
REMARK  Name = 445858
REMARK                            x       y       z     vdW  Elec       q    Type
REMARK                         _______ _______ _______ _____ _____    ______ ____
ROOT
ATOM      3  C   LIG    1       24.661 165.105  23.971  0.00  0.00    +0.162 A 
ATOM      4  C   LIG    1       24.371 166.266  23.253  0.00  0.00    +0.158 A 
ATOM      5  C   LIG    1       23.297 166.285  22.363  0.00  0.00    +0.050 A 
ATOM      6  C   LIG    1       22.514 165.143  22.190  0.00  0.00    +0.012 A 
ATOM      7  C   LIG    1       22.804 163.984  22.907  0.00  0.00    -0.021 A 
ATOM     16  C   LIG    1       23.877 163.963  23.798  0.00  0.00    +0.057 A 
ENDROOT
BRANCH   3   1
ATOM      1  O   LIG    1       25.708 165.073  24.842  0.00  0.00    -0.491 OA
ATOM      2  C   LIG    1       25.520 164.344  26.054  0.00  0.00    +0.277 C 
ENDBRANCH   3   1
BRANCH   7   8
ATOM      8  C   LIG    1       21.987 162.794  22.728  0.00  0.00    +0.015 C 
ATOM      9  C   LIG    1       21.063 162.619  21.756  0.00  0.00    +0.092 C 
BRANCH   9  10
ATOM     10  C   LIG    1       20.303 161.356  21.675  0.00  0.00    +0.330 C 
ATOM     11  O   LIG    1       20.477 160.360  22.359  0.00  0.00    -0.246 OA
BRANCH  10  12
ATOM     12  O   LIG    1       19.364 161.476  20.708  0.00  0.00    -0.478 OA
ATOM     13  H   LIG    1       18.670 162.126  20.948  0.00  0.00    +0.295 HD
ENDBRANCH  10  12
ENDBRANCH   9  10
ENDBRANCH   7   8
BRANCH   4  14
ATOM     14  O   LIG    1       25.129 167.386  23.413  0.00  0.00    -0.503 OA
ATOM     15  H   LIG    1       25.241 167.560  24.363  0.00  0.00    +0.292 HD
ENDBRANCH   4  14
TORSDOF 5
ENDMDL
