MODEL 1
REMARK VINA RESULT:      -7.7      0.000      0.000
REMARK  Name = 5280637
REMARK                            x       y       z     vdW  Elec       q    Type
REMARK                         _______ _______ _______ _____ _____    ______ ____
ROOT
ATOM     13  C   LIG    1       14.480 164.339  16.229  0.00  0.00    +0.131 A 
ATOM     14  C   LIG    1       13.628 163.277  15.928  0.00  0.00    +0.092 A 
ATOM     15  C   LIG    1       13.300 162.995  14.601  0.00  0.00    +0.135 A 
ATOM     16  C   LIG    1       13.831 163.783  13.578  0.00  0.00    +0.105 A 
ATOM     17  C   LIG    1       13.503 163.511  12.170  0.00  0.00    +0.197 A 
ATOM     18  C   LIG    1       14.122 164.406  11.171  0.00  0.00    +0.098 A 
ATOM     19  C   LIG    1       14.933 165.392  11.585  0.00  0.00    +0.139 A 
ATOM     30  O   LIG    1       15.234 165.651  12.913  0.00  0.00    -0.454 OA
ATOM     31  O   LIG    1       12.760 162.599  11.837  0.00  0.00    -0.287 OA
ATOM     32  C   LIG    1       14.684 164.844  13.877  0.00  0.00    +0.146 A 
ATOM     35  C   LIG    1       15.010 165.125  15.204  0.00  0.00    +0.093 A 
ENDROOT
BRANCH  19  20
ATOM     20  C   LIG    1       15.573 166.323  10.632  0.00  0.00    +0.021 A 
ATOM     21  C   LIG    1       16.435 165.835   9.647  0.00  0.00    +0.015 A 
ATOM     22  C   LIG    1       17.040 166.714   8.749  0.00  0.00    +0.050 A 
ATOM     23  C   LIG    1       16.784 168.083   8.833  0.00  0.00    +0.158 A 
ATOM     24  C   LIG    1       15.925 168.573   9.816  0.00  0.00    +0.159 A 
ATOM     29  C   LIG    1       15.319 167.694  10.714  0.00  0.00    +0.060 A 
BRANCH  24  25
ATOM     25  O   LIG    1       15.667 169.908   9.905  0.00  0.00    -0.503 OA
ATOM     26  H   LIG    1       14.908 170.034  10.500  0.00  0.00    +0.292 HD
ENDBRANCH  24  25
BRANCH  23  27
ATOM     27  O   LIG    1       17.382 168.931   7.950  0.00  0.00    -0.503 OA
ATOM     28  H   LIG    1       17.217 169.848   8.230  0.00  0.00    +0.292 HD
ENDBRANCH  23  27
ENDBRANCH  19  20
BRANCH  15  33
ATOM     33  O   LIG    1       12.462 161.948  14.360  0.00  0.00    -0.506 OA
ATOM     34  H   LIG    1       11.549 162.184  14.582  0.00  0.00    +0.292 HD
ENDBRANCH  15  33
BRANCH  13  12
ATOM     12  O   LIG    1       14.797 164.611  17.527  0.00  0.00    -0.461 OA
BRANCH  12   2
ATOM      1  O   LIG    1       14.118 163.790  19.603  0.00  0.00    -0.331 OA
ATOM      2  C   LIG    1       14.853 163.497  18.417  0.00  0.00    +0.339 C 
ATOM      3  C   LIG    1       16.322 163.233  18.749  0.00  0.00    +0.214 C 
ATOM      4  C   LIG    1       16.465 162.148  19.817  0.00  0.00    +0.180 C 
ATOM      5  C   LIG    1       15.539 162.415  21.004  0.00  0.00    +0.177 C 
ATOM     36  C   LIG    1       14.113 162.701  20.528  0.00  0.00    +0.179 C 
BRANCH   5   6
ATOM      6  O   LIG    1       15.530 161.276  21.861  0.00  0.00    -0.386 OA
ATOM      7  H   LIG    1       16.010 161.509  22.674  0.00  0.00    +0.210 HD
ENDBRANCH   5   6
BRANCH   4   8
ATOM      8  O   LIG    1       17.809 162.130  20.300  0.00  0.00    -0.386 OA
ATOM      9  H   LIG    1       18.363 161.739  19.602  0.00  0.00    +0.210 HD
ENDBRANCH   4   8
BRANCH   3  10
ATOM     10  O   LIG    1       16.982 162.812  17.556  0.00  0.00    -0.383 OA
ATOM     11  H   LIG    1       16.357 162.903  16.817  0.00  0.00    +0.210 HD
ENDBRANCH   3  10
BRANCH  36  37
ATOM     37  C   LIG    1       13.198 163.086  21.686  0.00  0.00    +0.190 C 
BRANCH  37  38
ATOM     38  O   LIG    1       11.970 163.550  21.155  0.00  0.00    -0.392 OA
ATOM     39  H   LIG    1       12.176 164.199  20.460  0.00  0.00    +0.210 HD
ENDBRANCH  37  38
ENDBRANCH  36  37
ENDBRANCH  12   2
ENDBRANCH  13  12
TORSDOF 11
ENDMDL
MODEL 2
REMARK VINA RESULT:      -7.7     24.509     27.221
REMARK  Name = 5280637
REMARK                            x       y       z     vdW  Elec       q    Type
REMARK                         _______ _______ _______ _____ _____    ______ ____
ROOT
ATOM     13  C   LIG    1       23.780 142.443   9.392  0.00  0.00    +0.131 A 
ATOM     14  C   LIG    1       22.811 141.522   9.791  0.00  0.00    +0.092 A 
ATOM     15  C   LIG    1       23.112 140.560  10.756  0.00  0.00    +0.135 A 
ATOM     16  C   LIG    1       24.390 140.526  11.319  0.00  0.00    +0.105 A 
ATOM     17  C   LIG    1       24.738 139.524  12.337  0.00  0.00    +0.197 A 
ATOM     18  C   LIG    1       26.116 139.581  12.866  0.00  0.00    +0.098 A 
ATOM     19  C   LIG    1       26.957 140.521  12.407  0.00  0.00    +0.139 A 
ATOM     30  O   LIG    1       26.629 141.460  11.441  0.00  0.00    -0.454 OA
ATOM     31  O   LIG    1       23.938 138.685  12.729  0.00  0.00    -0.287 OA
ATOM     32  C   LIG    1       25.359 141.447  10.922  0.00  0.00    +0.146 A 
ATOM     35  C   LIG    1       25.055 142.406   9.957  0.00  0.00    +0.093 A 
ENDROOT
BRANCH  19  20
ATOM     20  C   LIG    1       28.349 140.621  12.892  0.00  0.00    +0.021 A 
ATOM     21  C   LIG    1       29.024 139.479  13.327  0.00  0.00    +0.015 A 
ATOM     22  C   LIG    1       30.337 139.574  13.787  0.00  0.00    +0.050 A 
ATOM     23  C   LIG    1       30.980 140.812  13.811  0.00  0.00    +0.158 A 
ATOM     24  C   LIG    1       30.308 141.955  13.378  0.00  0.00    +0.159 A 
ATOM     29  C   LIG    1       28.994 141.860  12.919  0.00  0.00    +0.060 A 
BRANCH  24  25
ATOM     25  O   LIG    1       30.927 143.169  13.397  0.00  0.00    -0.503 OA
ATOM     26  H   LIG    1       31.431 143.243  14.225  0.00  0.00    +0.292 HD
ENDBRANCH  24  25
BRANCH  23  27
ATOM     27  O   LIG    1       32.263 140.892  14.263  0.00  0.00    -0.503 OA
ATOM     28  H   LIG    1       32.723 140.059  14.060  0.00  0.00    +0.292 HD
ENDBRANCH  23  27
ENDBRANCH  19  20
BRANCH  15  33
ATOM     33  O   LIG    1       22.132 139.683  11.110  0.00  0.00    -0.506 OA
ATOM     34  H   LIG    1       21.657 140.001  11.892  0.00  0.00    +0.292 HD
ENDBRANCH  15  33
BRANCH  13  12
ATOM     12  O   LIG    1       23.480 143.380   8.448  0.00  0.00    -0.461 OA
BRANCH  12   2
ATOM      1  O   LIG    1       23.503 141.863   6.676  0.00  0.00    -0.331 OA
ATOM      2  C   LIG    1       22.777 142.922   7.294  0.00  0.00    +0.339 C 
ATOM      3  C   LIG    1       22.631 144.103   6.334  0.00  0.00    +0.214 C 
ATOM      4  C   LIG    1       22.019 143.664   5.002  0.00  0.00    +0.180 C 
ATOM      5  C   LIG    1       22.724 142.425   4.451  0.00  0.00    +0.177 C 
ATOM     36  C   LIG    1       22.837 141.341   5.525  0.00  0.00    +0.179 C 
BRANCH   5   6
ATOM      6  O   LIG    1       21.986 141.917   3.343  0.00  0.00    -0.386 OA
ATOM      7  H   LIG    1       21.545 141.098   3.626  0.00  0.00    +0.210 HD
ENDBRANCH   5   6
BRANCH   4   8
ATOM      8  O   LIG    1       22.159 144.716   4.045  0.00  0.00    -0.386 OA
ATOM      9  H   LIG    1       23.105 144.932   3.987  0.00  0.00    +0.210 HD
ENDBRANCH   4   8
BRANCH   3  10
ATOM     10  O   LIG    1       21.785 145.076   6.945  0.00  0.00    -0.383 OA
ATOM     11  H   LIG    1       21.572 145.752   6.279  0.00  0.00    +0.210 HD
ENDBRANCH   3  10
BRANCH  36  37
ATOM     37  C   LIG    1       23.640 140.141   5.033  0.00  0.00    +0.190 C 
BRANCH  37  38
ATOM     38  O   LIG    1       24.604 140.596   4.102  0.00  0.00    -0.392 OA
ATOM     39  H   LIG    1       25.433 140.117   4.277  0.00  0.00    +0.210 HD
ENDBRANCH  37  38
ENDBRANCH  36  37
ENDBRANCH  12   2
ENDBRANCH  13  12
TORSDOF 11
ENDMDL
MODEL 3
REMARK VINA RESULT:      -7.6      6.107     10.596
REMARK  Name = 5280637
REMARK                            x       y       z     vdW  Elec       q    Type
REMARK                         _______ _______ _______ _____ _____    ______ ____
ROOT
ATOM     13  C   LIG    1       18.775 165.521  18.223  0.00  0.00    +0.131 A 
ATOM     14  C   LIG    1       18.279 166.821  18.125  0.00  0.00    +0.092 A 
ATOM     15  C   LIG    1       18.831 167.842  18.899  0.00  0.00    +0.135 A 
ATOM     16  C   LIG    1       19.884 167.554  19.770  0.00  0.00    +0.105 A 
ATOM     17  C   LIG    1       20.486 168.609  20.599  0.00  0.00    +0.197 A 
ATOM     18  C   LIG    1       21.593 168.193  21.484  0.00  0.00    +0.098 A 
ATOM     19  C   LIG    1       21.986 166.909  21.485  0.00  0.00    +0.139 A 
ATOM     30  O   LIG    1       21.412 165.915  20.708  0.00  0.00    -0.454 OA
ATOM     31  O   LIG    1       20.097 169.769  20.565  0.00  0.00    -0.287 OA
ATOM     32  C   LIG    1       20.381 166.255  19.869  0.00  0.00    +0.146 A 
ATOM     35  C   LIG    1       19.826 165.236  19.096  0.00  0.00    +0.093 A 
ENDROOT
BRANCH  19  20
ATOM     20  C   LIG    1       23.082 166.433  22.354  0.00  0.00    +0.021 A 
ATOM     21  C   LIG    1       23.475 165.094  22.317  0.00  0.00    +0.015 A 
ATOM     22  C   LIG    1       24.508 164.644  23.139  0.00  0.00    +0.050 A 
ATOM     23  C   LIG    1       25.153 165.534  23.999  0.00  0.00    +0.158 A 
ATOM     24  C   LIG    1       24.762 166.872  24.039  0.00  0.00    +0.159 A 
ATOM     29  C   LIG    1       23.728 167.322  23.217  0.00  0.00    +0.060 A 
BRANCH  24  25
ATOM     25  O   LIG    1       25.385 167.750  24.874  0.00  0.00    -0.503 OA
ATOM     26  H   LIG    1       25.923 167.242  25.505  0.00  0.00    +0.292 HD
ENDBRANCH  24  25
BRANCH  23  27
ATOM     27  O   LIG    1       26.160 165.082  24.798  0.00  0.00    -0.503 OA
ATOM     28  H   LIG    1       26.204 164.113  24.735  0.00  0.00    +0.292 HD
ENDBRANCH  23  27
ENDBRANCH  19  20
BRANCH  15  33
ATOM     33  O   LIG    1       18.311 169.094  18.767  0.00  0.00    -0.506 OA
ATOM     34  H   LIG    1       18.989 169.765  18.940  0.00  0.00    +0.292 HD
ENDBRANCH  15  33
BRANCH  13  12
ATOM     12  O   LIG    1       18.230 164.525  17.466  0.00  0.00    -0.461 OA
BRANCH  12   2
ATOM      1  O   LIG    1       16.056 163.955  18.090  0.00  0.00    -0.331 OA
ATOM      2  C   LIG    1       16.849 164.657  17.136  0.00  0.00    +0.339 C 
ATOM      3  C   LIG    1       16.642 164.077  15.736  0.00  0.00    +0.214 C 
ATOM      4  C   LIG    1       15.160 164.041  15.362  0.00  0.00    +0.180 C 
ATOM      5  C   LIG    1       14.321 163.425  16.482  0.00  0.00    +0.177 C 
ATOM     36  C   LIG    1       14.656 164.069  17.829  0.00  0.00    +0.179 C 
BRANCH   5   6
ATOM      6  O   LIG    1       12.938 163.619  16.197  0.00  0.00    -0.386 OA
ATOM      7  H   LIG    1       12.550 164.129  16.928  0.00  0.00    +0.210 HD
ENDBRANCH   5   6
BRANCH   4   8
ATOM      8  O   LIG    1       14.985 163.245  14.189  0.00  0.00    -0.386 OA
ATOM      9  H   LIG    1       14.701 163.840  13.474  0.00  0.00    +0.210 HD
ENDBRANCH   4   8
BRANCH   3  10
ATOM     10  O   LIG    1       17.346 164.896  14.803  0.00  0.00    -0.383 OA
ATOM     11  H   LIG    1       18.013 164.343  14.360  0.00  0.00    +0.210 HD
ENDBRANCH   3  10
BRANCH  36  37
ATOM     37  C   LIG    1       13.917 163.391  18.978  0.00  0.00    +0.190 C 
BRANCH  37  38
ATOM     38  O   LIG    1       13.519 162.099  18.558  0.00  0.00    -0.392 OA
ATOM     39  H   LIG    1       13.777 161.999  17.625  0.00  0.00    +0.210 HD
ENDBRANCH  37  38
ENDBRANCH  36  37
ENDBRANCH  12   2
ENDBRANCH  13  12
TORSDOF 11
ENDMDL
MODEL 4
REMARK VINA RESULT:      -7.5     20.690     23.476
REMARK  Name = 5280637
REMARK                            x       y       z     vdW  Elec       q    Type
REMARK                         _______ _______ _______ _____ _____    ______ ____
ROOT
ATOM     13  C   LIG    1       12.449 147.094  30.678  0.00  0.00    +0.131 A 
ATOM     14  C   LIG    1       12.070 146.033  29.855  0.00  0.00    +0.092 A 
ATOM     15  C   LIG    1       10.912 146.123  29.083  0.00  0.00    +0.135 A 
ATOM     16  C   LIG    1       10.134 147.282  29.139  0.00  0.00    +0.105 A 
ATOM     17  C   LIG    1        8.907 147.406  28.339  0.00  0.00    +0.197 A 
ATOM     18  C   LIG    1        8.164 148.675  28.475  0.00  0.00    +0.098 A 
ATOM     19  C   LIG    1        8.633 149.627  29.297  0.00  0.00    +0.139 A 
ATOM     30  O   LIG    1        9.786 149.504  30.057  0.00  0.00    -0.454 OA
ATOM     31  O   LIG    1        8.516 146.513  27.600  0.00  0.00    -0.287 OA
ATOM     32  C   LIG    1       10.512 148.343  29.961  0.00  0.00    +0.146 A 
ATOM     35  C   LIG    1       11.670 148.251  30.732  0.00  0.00    +0.093 A 
ENDROOT
BRANCH  19  20
ATOM     20  C   LIG    1        7.928 150.912  29.480  0.00  0.00    +0.021 A 
ATOM     21  C   LIG    1        8.654 152.085  29.698  0.00  0.00    +0.015 A 
ATOM     22  C   LIG    1        7.988 153.298  29.872  0.00  0.00    +0.050 A 
ATOM     23  C   LIG    1        6.595 153.342  29.827  0.00  0.00    +0.158 A 
ATOM     24  C   LIG    1        5.867 152.172  29.610  0.00  0.00    +0.159 A 
ATOM     29  C   LIG    1        6.533 150.958  29.436  0.00  0.00    +0.060 A 
BRANCH  24  25
ATOM     25  O   LIG    1        4.506 152.204  29.562  0.00  0.00    -0.503 OA
ATOM     26  H   LIG    1        4.230 153.095  29.291  0.00  0.00    +0.292 HD
ENDBRANCH  24  25
BRANCH  23  27
ATOM     27  O   LIG    1        5.956 154.533  29.999  0.00  0.00    -0.503 OA
ATOM     28  H   LIG    1        5.114 154.377  30.461  0.00  0.00    +0.292 HD
ENDBRANCH  23  27
ENDBRANCH  19  20
BRANCH  15  33
ATOM     33  O   LIG    1       10.585 145.059  28.296  0.00  0.00    -0.506 OA
ATOM     34  H   LIG    1       10.169 145.359  27.474  0.00  0.00    +0.292 HD
ENDBRANCH  15  33
BRANCH  13  12
ATOM     12  O   LIG    1       13.582 147.001  31.431  0.00  0.00    -0.461 OA
BRANCH  12   2
ATOM      1  O   LIG    1       14.441 148.621  32.874  0.00  0.00    -0.331 OA
ATOM      2  C   LIG    1       13.518 147.542  32.750  0.00  0.00    +0.339 C 
ATOM      3  C   LIG    1       13.866 146.424  33.733  0.00  0.00    +0.214 C 
ATOM      4  C   LIG    1       13.968 146.954  35.164  0.00  0.00    +0.180 C 
ATOM      5  C   LIG    1       14.838 148.209  35.229  0.00  0.00    +0.177 C 
ATOM     36  C   LIG    1       14.407 149.225  34.168  0.00  0.00    +0.179 C 
BRANCH   5   6
ATOM      6  O   LIG    1       14.721 148.798  36.521  0.00  0.00    -0.386 OA
ATOM      7  H   LIG    1       14.140 148.232  37.058  0.00  0.00    +0.210 HD
ENDBRANCH   5   6
BRANCH   4   8
ATOM      8  O   LIG    1       14.562 145.959  35.999  0.00  0.00    -0.386 OA
ATOM      9  H   LIG    1       14.902 146.410  36.791  0.00  0.00    +0.210 HD
ENDBRANCH   4   8
BRANCH   3  10
ATOM     10  O   LIG    1       12.840 145.434  33.668  0.00  0.00    -0.383 OA
ATOM     11  H   LIG    1       11.980 145.889  33.685  0.00  0.00    +0.210 HD
ENDBRANCH   3  10
BRANCH  36  37
ATOM     37  C   LIG    1       15.336 150.435  34.136  0.00  0.00    +0.190 C 
BRANCH  37  38
ATOM     38  O   LIG    1       16.461 150.161  34.951  0.00  0.00    -0.392 OA
ATOM     39  H   LIG    1       17.028 149.534  34.470  0.00  0.00    +0.210 HD
ENDBRANCH  37  38
ENDBRANCH  36  37
ENDBRANCH  12   2
ENDBRANCH  13  12
TORSDOF 11
ENDMDL
MODEL 5
REMARK VINA RESULT:      -7.5     24.932     26.743
REMARK  Name = 5280637
REMARK                            x       y       z     vdW  Elec       q    Type
REMARK                         _______ _______ _______ _____ _____    ______ ____
ROOT
ATOM     13  C   LIG    1       25.872 140.286  12.889  0.00  0.00    +0.131 A 
ATOM     14  C   LIG    1       25.210 139.110  13.239  0.00  0.00    +0.092 A 
ATOM     15  C   LIG    1       24.120 138.669  12.487  0.00  0.00    +0.135 A 
ATOM     16  C   LIG    1       23.699 139.412  11.382  0.00  0.00    +0.105 A 
ATOM     17  C   LIG    1       22.554 138.973  10.571  0.00  0.00    +0.197 A 
ATOM     18  C   LIG    1       22.197 139.835   9.425  0.00  0.00    +0.098 A 
ATOM     19  C   LIG    1       22.917 140.942   9.186  0.00  0.00    +0.139 A 
ATOM     30  O   LIG    1       23.991 141.358   9.957  0.00  0.00    -0.454 OA
ATOM     31  O   LIG    1       21.926 137.954  10.824  0.00  0.00    -0.287 OA
ATOM     32  C   LIG    1       24.362 140.588  11.031  0.00  0.00    +0.146 A 
ATOM     35  C   LIG    1       25.449 141.027  11.784  0.00  0.00    +0.093 A 
ENDROOT
BRANCH  19  20
ATOM     20  C   LIG    1       22.601 141.846   8.060  0.00  0.00    +0.021 A 
ATOM     21  C   LIG    1       23.255 143.074   7.943  0.00  0.00    +0.015 A 
ATOM     22  C   LIG    1       22.955 143.927   6.881  0.00  0.00    +0.050 A 
ATOM     23  C   LIG    1       22.002 143.554   5.933  0.00  0.00    +0.158 A 
ATOM     24  C   LIG    1       21.347 142.328   6.049  0.00  0.00    +0.159 A 
ATOM     29  C   LIG    1       21.646 141.474   7.111  0.00  0.00    +0.060 A 
BRANCH  24  25
ATOM     25  O   LIG    1       20.415 141.953   5.127  0.00  0.00    -0.503 OA
ATOM     26  H   LIG    1       19.727 142.638   5.092  0.00  0.00    +0.292 HD
ENDBRANCH  24  25
BRANCH  23  27
ATOM     27  O   LIG    1       21.718 144.397   4.901  0.00  0.00    -0.503 OA
ATOM     28  H   LIG    1       22.211 144.111   4.113  0.00  0.00    +0.292 HD
ENDBRANCH  23  27
ENDBRANCH  19  20
BRANCH  15  33
ATOM     33  O   LIG    1       23.507 137.514  12.870  0.00  0.00    -0.506 OA
ATOM     34  H   LIG    1       24.021 137.068  13.559  0.00  0.00    +0.292 HD
ENDBRANCH  15  33
BRANCH  13  12
ATOM     12  O   LIG    1       26.937 140.714  13.628  0.00  0.00    -0.461 OA
BRANCH  12   2
ATOM      1  O   LIG    1       29.004 139.636  13.562  0.00  0.00    -0.331 OA
ATOM      2  C   LIG    1       28.213 140.675  12.991  0.00  0.00    +0.339 C 
ATOM      3  C   LIG    1       28.882 142.034  13.196  0.00  0.00    +0.214 C 
ATOM      4  C   LIG    1       30.320 142.030  12.674  0.00  0.00    +0.180 C 
ATOM      5  C   LIG    1       31.090 140.811  13.181  0.00  0.00    +0.177 C 
ATOM     36  C   LIG    1       30.291 139.527  12.949  0.00  0.00    +0.179 C 
BRANCH   5   6
ATOM      6  O   LIG    1       32.336 140.722  12.496  0.00  0.00    -0.386 OA
ATOM      7  H   LIG    1       32.573 139.781  12.425  0.00  0.00    +0.210 HD
ENDBRANCH   5   6
BRANCH   4   8
ATOM      8  O   LIG    1       30.995 143.203  13.131  0.00  0.00    -0.386 OA
ATOM      9  H   LIG    1       31.038 143.824  12.383  0.00  0.00    +0.210 HD
ENDBRANCH   4   8
BRANCH   3  10
ATOM     10  O   LIG    1       28.125 143.017  12.491  0.00  0.00    -0.383 OA
ATOM     11  H   LIG    1       28.724 143.747  12.256  0.00  0.00    +0.210 HD
ENDBRANCH   3  10
BRANCH  36  37
ATOM     37  C   LIG    1       30.987 138.312  13.553  0.00  0.00    +0.190 C 
BRANCH  37  38
ATOM     38  O   LIG    1       31.714 138.730  14.693  0.00  0.00    -0.392 OA
ATOM     39  H   LIG    1       32.149 139.573  14.474  0.00  0.00    +0.210 HD
ENDBRANCH  37  38
ENDBRANCH  36  37
ENDBRANCH  12   2
ENDBRANCH  13  12
TORSDOF 11
ENDMDL
MODEL 6
REMARK VINA RESULT:      -7.5      2.742      4.039
REMARK  Name = 5280637
REMARK                            x       y       z     vdW  Elec       q    Type
REMARK                         _______ _______ _______ _____ _____    ______ ____
ROOT
ATOM     13  C   LIG    1       14.924 165.067  16.746  0.00  0.00    +0.131 A 
ATOM     14  C   LIG    1       14.131 163.972  17.091  0.00  0.00    +0.092 A 
ATOM     15  C   LIG    1       13.520 163.208  16.096  0.00  0.00    +0.135 A 
ATOM     16  C   LIG    1       13.708 163.547  14.755  0.00  0.00    +0.105 A 
ATOM     17  C   LIG    1       13.075 162.761  13.684  0.00  0.00    +0.197 A 
ATOM     18  C   LIG    1       13.343 163.208  12.302  0.00  0.00    +0.098 A 
ATOM     19  C   LIG    1       14.131 164.275  12.096  0.00  0.00    +0.139 A 
ATOM     30  O   LIG    1       14.719 165.019  13.108  0.00  0.00    -0.454 OA
ATOM     31  O   LIG    1       12.366 161.792  13.916  0.00  0.00    -0.287 OA
ATOM     32  C   LIG    1       14.500 164.640  14.409  0.00  0.00    +0.146 A 
ATOM     35  C   LIG    1       15.110 165.403  15.405  0.00  0.00    +0.093 A 
ENDROOT
BRANCH  19  20
ATOM     20  C   LIG    1       14.427 164.773  10.737  0.00  0.00    +0.021 A 
ATOM     21  C   LIG    1       13.464 164.675   9.730  0.00  0.00    +0.015 A 
ATOM     22  C   LIG    1       13.744 165.143   8.446  0.00  0.00    +0.050 A 
ATOM     23  C   LIG    1       14.987 165.711   8.166  0.00  0.00    +0.158 A 
ATOM     24  C   LIG    1       15.951 165.809   9.171  0.00  0.00    +0.159 A 
ATOM     29  C   LIG    1       15.671 165.341  10.454  0.00  0.00    +0.060 A 
BRANCH  24  25
ATOM     25  O   LIG    1       17.167 166.364   8.908  0.00  0.00    -0.503 OA
ATOM     26  H   LIG    1       17.064 166.996   8.177  0.00  0.00    +0.292 HD
ENDBRANCH  24  25
BRANCH  23  27
ATOM     27  O   LIG    1       15.249 166.164   6.909  0.00  0.00    -0.503 OA
ATOM     28  H   LIG    1       16.165 165.935   6.674  0.00  0.00    +0.292 HD
ENDBRANCH  23  27
ENDBRANCH  19  20
BRANCH  15  33
ATOM     33  O   LIG    1       12.755 162.150  16.485  0.00  0.00    -0.506 OA
ATOM     34  H   LIG    1       11.813 162.362  16.404  0.00  0.00    +0.292 HD
ENDBRANCH  15  33
BRANCH  13  12
ATOM     12  O   LIG    1       15.519 165.811  17.723  0.00  0.00    -0.461 OA
BRANCH  12   2
ATOM      1  O   LIG    1       17.681 164.942  17.829  0.00  0.00    -0.331 OA
ATOM      2  C   LIG    1       16.904 166.103  17.547  0.00  0.00    +0.339 C 
ATOM      3  C   LIG    1       17.270 167.238  18.505  0.00  0.00    +0.214 C 
ATOM      4  C   LIG    1       18.774 167.514  18.491  0.00  0.00    +0.180 C 
ATOM      5  C   LIG    1       19.576 166.221  18.635  0.00  0.00    +0.177 C 
ATOM     36  C   LIG    1       19.081 165.162  17.647  0.00  0.00    +0.179 C 
BRANCH   5   6
ATOM      6  O   LIG    1       20.954 166.490  18.387  0.00  0.00    -0.386 OA
ATOM      7  H   LIG    1       21.474 165.760  18.763  0.00  0.00    +0.210 HD
ENDBRANCH   5   6
BRANCH   4   8
ATOM      8  O   LIG    1       19.111 168.368  19.585  0.00  0.00    -0.386 OA
ATOM      9  H   LIG    1       19.088 167.827  20.394  0.00  0.00    +0.210 HD
ENDBRANCH   4   8
BRANCH   3  10
ATOM     10  O   LIG    1       16.569 168.412  18.097  0.00  0.00    -0.383 OA
ATOM     11  H   LIG    1       15.961 168.166  17.379  0.00  0.00    +0.210 HD
ENDBRANCH   3  10
BRANCH  36  37
ATOM     37  C   LIG    1       19.788 163.825  17.852  0.00  0.00    +0.190 C 
BRANCH  37  38
ATOM     38  O   LIG    1       18.810 162.834  18.106  0.00  0.00    -0.392 OA
ATOM     39  H   LIG    1       18.892 162.154  17.415  0.00  0.00    +0.210 HD
ENDBRANCH  37  38
ENDBRANCH  36  37
ENDBRANCH  12   2
ENDBRANCH  13  12
TORSDOF 11
ENDMDL
MODEL 7
REMARK VINA RESULT:      -7.3     20.556     23.508
REMARK  Name = 5280637
REMARK                            x       y       z     vdW  Elec       q    Type
REMARK                         _______ _______ _______ _____ _____    ______ ____
ROOT
ATOM     13  C   LIG    1        7.908 148.720  29.777  0.00  0.00    +0.131 A 
ATOM     14  C   LIG    1        7.571 148.329  31.073  0.00  0.00    +0.092 A 
ATOM     15  C   LIG    1        8.361 147.403  31.754  0.00  0.00    +0.135 A 
ATOM     16  C   LIG    1        9.491 146.870  31.130  0.00  0.00    +0.105 A 
ATOM     17  C   LIG    1       10.343 145.891  31.821  0.00  0.00    +0.197 A 
ATOM     18  C   LIG    1       11.513 145.395  31.067  0.00  0.00    +0.098 A 
ATOM     19  C   LIG    1       11.736 145.853  29.825  0.00  0.00    +0.139 A 
ATOM     30  O   LIG    1       10.927 146.770  29.172  0.00  0.00    -0.454 OA
ATOM     31  O   LIG    1       10.104 145.503  32.956  0.00  0.00    -0.287 OA
ATOM     32  C   LIG    1        9.830 147.261  29.834  0.00  0.00    +0.146 A 
ATOM     35  C   LIG    1        9.038 148.186  29.156  0.00  0.00    +0.093 A 
ENDROOT
BRANCH  19  20
ATOM     20  C   LIG    1       12.884 145.387  29.020  0.00  0.00    +0.021 A 
ATOM     21  C   LIG    1       13.047 144.026  28.754  0.00  0.00    +0.015 A 
ATOM     22  C   LIG    1       14.132 143.586  27.996  0.00  0.00    +0.050 A 
ATOM     23  C   LIG    1       15.056 144.506  27.501  0.00  0.00    +0.158 A 
ATOM     24  C   LIG    1       14.896 145.866  27.766  0.00  0.00    +0.159 A 
ATOM     29  C   LIG    1       13.811 146.306  28.525  0.00  0.00    +0.060 A 
BRANCH  24  25
ATOM     25  O   LIG    1       15.792 146.774  27.286  0.00  0.00    -0.503 OA
ATOM     26  H   LIG    1       16.047 147.366  28.014  0.00  0.00    +0.292 HD
ENDBRANCH  24  25
BRANCH  23  27
ATOM     27  O   LIG    1       16.112 144.064  26.762  0.00  0.00    -0.503 OA
ATOM     28  H   LIG    1       15.875 143.218  26.345  0.00  0.00    +0.292 HD
ENDBRANCH  23  27
ENDBRANCH  19  20
BRANCH  15  33
ATOM     33  O   LIG    1        7.989 147.054  33.017  0.00  0.00    -0.506 OA
ATOM     34  H   LIG    1        7.357 147.694  33.375  0.00  0.00    +0.292 HD
ENDBRANCH  15  33
BRANCH  13  12
ATOM     12  O   LIG    1        7.131 149.626  29.115  0.00  0.00    -0.461 OA
BRANCH  12   2
ATOM      1  O   LIG    1        8.720 151.099  29.981  0.00  0.00    -0.331 OA
ATOM      2  C   LIG    1        7.548 150.989  29.177  0.00  0.00    +0.339 C 
ATOM      3  C   LIG    1        6.404 151.802  29.784  0.00  0.00    +0.214 C 
ATOM      4  C   LIG    1        6.821 153.254  30.026  0.00  0.00    +0.180 C 
ATOM      5  C   LIG    1        8.165 153.330  30.750  0.00  0.00    +0.177 C 
ATOM     36  C   LIG    1        9.204 152.441  30.062  0.00  0.00    +0.179 C 
BRANCH   5   6
ATOM      6  O   LIG    1        8.625 154.679  30.751  0.00  0.00    -0.386 OA
ATOM      7  H   LIG    1        8.290 155.109  31.556  0.00  0.00    +0.210 HD
ENDBRANCH   5   6
BRANCH   4   8
ATOM      8  O   LIG    1        5.842 153.900  30.841  0.00  0.00    -0.386 OA
ATOM      9  H   LIG    1        6.175 154.791  31.044  0.00  0.00    +0.210 HD
ENDBRANCH   4   8
BRANCH   3  10
ATOM     10  O   LIG    1        5.302 151.772  28.877  0.00  0.00    -0.383 OA
ATOM     11  H   LIG    1        4.985 152.683  28.757  0.00  0.00    +0.210 HD
ENDBRANCH   3  10
BRANCH  36  37
ATOM     37  C   LIG    1       10.519 152.409  30.835  0.00  0.00    +0.190 C 
BRANCH  37  38
ATOM     38  O   LIG    1       11.347 153.454  30.358  0.00  0.00    -0.392 OA
ATOM     39  H   LIG    1       12.119 153.047  29.928  0.00  0.00    +0.210 HD
ENDBRANCH  37  38
ENDBRANCH  36  37
ENDBRANCH  12   2
ENDBRANCH  13  12
TORSDOF 11
ENDMDL
MODEL 8
REMARK VINA RESULT:      -7.3      2.912      4.244
REMARK  Name = 5280637
REMARK                            x       y       z     vdW  Elec       q    Type
REMARK                         _______ _______ _______ _____ _____    ______ ____
ROOT
ATOM     13  C   LIG    1       16.874 163.725  17.042  0.00  0.00    +0.131 A 
ATOM     14  C   LIG    1       15.685 163.314  17.645  0.00  0.00    +0.092 A 
ATOM     15  C   LIG    1       14.495 163.306  16.917  0.00  0.00    +0.135 A 
ATOM     16  C   LIG    1       14.503 163.713  15.581  0.00  0.00    +0.105 A 
ATOM     17  C   LIG    1       13.264 163.718  14.787  0.00  0.00    +0.197 A 
ATOM     18  C   LIG    1       13.389 164.165  13.385  0.00  0.00    +0.098 A 
ATOM     19  C   LIG    1       14.592 164.533  12.917  0.00  0.00    +0.139 A 
ATOM     30  O   LIG    1       15.756 164.535  13.669  0.00  0.00    -0.454 OA
ATOM     31  O   LIG    1       12.188 163.373  15.254  0.00  0.00    -0.287 OA
ATOM     32  C   LIG    1       15.690 164.124  14.977  0.00  0.00    +0.146 A 
ATOM     35  C   LIG    1       16.878 164.132  15.707  0.00  0.00    +0.093 A 
ENDROOT
BRANCH  19  20
ATOM     20  C   LIG    1       14.776 164.997  11.526  0.00  0.00    +0.021 A 
ATOM     21  C   LIG    1       13.824 164.687  10.552  0.00  0.00    +0.015 A 
ATOM     22  C   LIG    1       13.998 165.125   9.239  0.00  0.00    +0.050 A 
ATOM     23  C   LIG    1       15.124 165.874   8.897  0.00  0.00    +0.158 A 
ATOM     24  C   LIG    1       16.076 166.184   9.868  0.00  0.00    +0.159 A 
ATOM     29  C   LIG    1       15.902 165.747  11.181  0.00  0.00    +0.060 A 
BRANCH  24  25
ATOM     25  O   LIG    1       17.179 166.917   9.544  0.00  0.00    -0.503 OA
ATOM     26  H   LIG    1       17.262 167.643  10.185  0.00  0.00    +0.292 HD
ENDBRANCH  24  25
BRANCH  23  27
ATOM     27  O   LIG    1       15.283 166.294   7.611  0.00  0.00    -0.503 OA
ATOM     28  H   LIG    1       15.197 167.263   7.581  0.00  0.00    +0.292 HD
ENDBRANCH  23  27
ENDBRANCH  19  20
BRANCH  15  33
ATOM     33  O   LIG    1       13.361 162.896  17.551  0.00  0.00    -0.506 OA
ATOM     34  H   LIG    1       13.002 162.103  17.127  0.00  0.00    +0.292 HD
ENDBRANCH  15  33
BRANCH  13  12
ATOM     12  O   LIG    1       18.034 163.731  17.759  0.00  0.00    -0.461 OA
BRANCH  12   2
ATOM      1  O   LIG    1       18.996 165.817  18.168  0.00  0.00    -0.331 OA
ATOM      2  C   LIG    1       18.188 164.779  18.716  0.00  0.00    +0.339 C 
ATOM      3  C   LIG    1       18.849 164.185  19.960  0.00  0.00    +0.214 C 
ATOM      4  C   LIG    1       19.189 165.272  20.981  0.00  0.00    +0.180 C 
ATOM      5  C   LIG    1       19.915 166.444  20.321  0.00  0.00    +0.177 C 
ATOM     36  C   LIG    1       19.168 166.912  19.070  0.00  0.00    +0.179 C 
BRANCH   5   6
ATOM      6  O   LIG    1       20.007 167.524  21.247  0.00  0.00    -0.386 OA
ATOM      7  H   LIG    1       20.820 167.404  21.767  0.00  0.00    +0.210 HD
ENDBRANCH   5   6
BRANCH   4   8
ATOM      8  O   LIG    1       20.047 164.729  21.986  0.00  0.00    -0.386 OA
ATOM      9  H   LIG    1       20.376 165.473  22.520  0.00  0.00    +0.210 HD
ENDBRANCH   4   8
BRANCH   3  10
ATOM     10  O   LIG    1       17.944 163.251  20.547  0.00  0.00    -0.383 OA
ATOM     11  H   LIG    1       18.147 163.190  21.496  0.00  0.00    +0.210 HD
ENDBRANCH   3  10
BRANCH  36  37
ATOM     37  C   LIG    1       19.935 168.003  18.329  0.00  0.00    +0.190 C 
BRANCH  37  38
ATOM     38  O   LIG    1       21.066 167.417  17.711  0.00  0.00    -0.392 OA
ATOM     39  H   LIG    1       21.694 167.174  18.413  0.00  0.00    +0.210 HD
ENDBRANCH  37  38
ENDBRANCH  36  37
ENDBRANCH  12   2
ENDBRANCH  13  12
TORSDOF 11
ENDMDL
MODEL 9
REMARK VINA RESULT:      -7.1     24.237     27.308
REMARK  Name = 5280637
REMARK                            x       y       z     vdW  Elec       q    Type
REMARK                         _______ _______ _______ _____ _____    ______ ____
ROOT
ATOM     13  C   LIG    1        7.221 139.866  14.881  0.00  0.00    +0.131 A 
ATOM     14  C   LIG    1        6.035 139.140  14.989  0.00  0.00    +0.092 A 
ATOM     15  C   LIG    1        5.557 138.760  16.244  0.00  0.00    +0.135 A 
ATOM     16  C   LIG    1        6.274 139.112  17.389  0.00  0.00    +0.105 A 
ATOM     17  C   LIG    1        5.797 138.725  18.725  0.00  0.00    +0.197 A 
ATOM     18  C   LIG    1        6.633 139.151  19.866  0.00  0.00    +0.098 A 
ATOM     19  C   LIG    1        7.753 139.853  19.634  0.00  0.00    +0.139 A 
ATOM     30  O   LIG    1        8.205 140.210  18.373  0.00  0.00    -0.454 OA
ATOM     31  O   LIG    1        4.768 138.086  18.892  0.00  0.00    -0.287 OA
ATOM     32  C   LIG    1        7.460 139.838  17.283  0.00  0.00    +0.146 A 
ATOM     35  C   LIG    1        7.936 140.216  16.028  0.00  0.00    +0.093 A 
ENDROOT
BRANCH  19  20
ATOM     20  C   LIG    1        8.633 140.299  20.735  0.00  0.00    +0.021 A 
ATOM     21  C   LIG    1        8.666 139.589  21.937  0.00  0.00    +0.015 A 
ATOM     22  C   LIG    1        9.496 140.010  22.976  0.00  0.00    +0.050 A 
ATOM     23  C   LIG    1       10.294 141.143  22.816  0.00  0.00    +0.158 A 
ATOM     24  C   LIG    1       10.262 141.855  21.617  0.00  0.00    +0.159 A 
ATOM     29  C   LIG    1        9.432 141.433  20.577  0.00  0.00    +0.060 A 
BRANCH  24  25
ATOM     25  O   LIG    1       11.039 142.961  21.449  0.00  0.00    -0.503 OA
ATOM     26  H   LIG    1       11.093 143.429  22.300  0.00  0.00    +0.292 HD
ENDBRANCH  24  25
BRANCH  23  27
ATOM     27  O   LIG    1       11.099 141.545  23.839  0.00  0.00    -0.503 OA
ATOM     28  H   LIG    1       12.004 141.230  23.672  0.00  0.00    +0.292 HD
ENDBRANCH  23  27
ENDBRANCH  19  20
BRANCH  15  33
ATOM     33  O   LIG    1        4.395 138.052  16.296  0.00  0.00    -0.506 OA
ATOM     34  H   LIG    1        3.885 138.174  15.481  0.00  0.00    +0.292 HD
ENDBRANCH  15  33
BRANCH  13  12
ATOM     12  O   LIG    1        7.685 140.235  13.652  0.00  0.00    -0.461 OA
BRANCH  12   2
ATOM      1  O   LIG    1        9.862 139.525  13.207  0.00  0.00    -0.331 OA
ATOM      2  C   LIG    1        8.481 139.276  12.956  0.00  0.00    +0.339 C 
ATOM      3  C   LIG    1        8.175 139.406  11.464  0.00  0.00    +0.214 C 
ATOM      4  C   LIG    1        9.097 138.517  10.628  0.00  0.00    +0.180 C 
ATOM      5  C   LIG    1       10.559 138.695  11.038  0.00  0.00    +0.177 C 
ATOM     36  C   LIG    1       10.715 138.581  12.556  0.00  0.00    +0.179 C 
BRANCH   5   6
ATOM      6  O   LIG    1       11.351 137.694  10.406  0.00  0.00    -0.386 OA
ATOM      7  H   LIG    1       12.210 137.659  10.861  0.00  0.00    +0.210 HD
ENDBRANCH   5   6
BRANCH   4   8
ATOM      8  O   LIG    1        8.977 138.871   9.250  0.00  0.00    -0.386 OA
ATOM      9  H   LIG    1        8.231 138.365   8.884  0.00  0.00    +0.210 HD
ENDBRANCH   4   8
BRANCH   3  10
ATOM     10  O   LIG    1        6.819 139.015  11.249  0.00  0.00    -0.383 OA
ATOM     11  H   LIG    1        6.685 138.148  11.668  0.00  0.00    +0.210 HD
ENDBRANCH   3  10
BRANCH  36  37
ATOM     37  C   LIG    1       12.145 138.872  13.000  0.00  0.00    +0.190 C 
BRANCH  37  38
ATOM     38  O   LIG    1       12.927 137.710  12.790  0.00  0.00    -0.392 OA
ATOM     39  H   LIG    1       12.593 137.018  13.386  0.00  0.00    +0.210 HD
ENDBRANCH  37  38
ENDBRANCH  36  37
ENDBRANCH  12   2
ENDBRANCH  13  12
TORSDOF 11
ENDMDL
