MODEL 1
REMARK VINA RESULT:      -7.7      0.000      0.000
REMARK  Name = 9823887
REMARK                            x       y       z     vdW  Elec       q    Type
REMARK                         _______ _______ _______ _____ _____    ______ ____
ROOT
ATOM      1  O   LIG    1       13.040 143.599  28.415  0.00  0.00    -0.341 OA
ATOM      2  C   LIG    1       14.266 143.338  27.736  0.00  0.00    +0.282 C 
ATOM      3  C   LIG    1       14.867 144.637  27.197  0.00  0.00    +0.201 C 
ATOM      4  C   LIG    1       15.013 145.683  28.301  0.00  0.00    +0.179 C 
ATOM      5  C   LIG    1       13.723 145.819  29.109  0.00  0.00    +0.177 C 
ATOM     22  C   LIG    1       13.212 144.446  29.552  0.00  0.00    +0.178 C 
ENDROOT
BRANCH   5   6
ATOM      6  O   LIG    1       13.969 146.624  30.260  0.00  0.00    -0.386 OA
ATOM      7  H   LIG    1       14.816 147.084  30.127  0.00  0.00    +0.210 HD
ENDBRANCH   5   6
BRANCH   4   8
ATOM      8  O   LIG    1       15.304 146.954  27.717  0.00  0.00    -0.386 OA
ATOM      9  H   LIG    1       15.971 147.386  28.277  0.00  0.00    +0.210 HD
ENDBRANCH   4   8
BRANCH   3  10
ATOM     10  O   LIG    1       16.152 144.342  26.650  0.00  0.00    -0.384 OA
ATOM     11  H   LIG    1       16.173 143.398  26.423  0.00  0.00    +0.210 HD
ENDBRANCH   3  10
BRANCH   2  12
ATOM     12  O   LIG    1       14.029 142.470  26.629  0.00  0.00    -0.345 OA
BRANCH  12  13
ATOM     13  C   LIG    1       13.312 141.312  27.025  0.00  0.00    +0.190 C 
BRANCH  13  14
ATOM     14  C   LIG    1       14.157 140.108  26.758  0.00  0.00    +0.001 C 
ATOM     15  C   LIG    1       13.809 138.866  27.130  0.00  0.00    +0.006 C 
BRANCH  15  16
ATOM     16  C   LIG    1       14.600 137.650  26.875  0.00  0.00    -0.025 A 
ATOM     17  C   LIG    1       15.313 137.073  27.915  0.00  0.00    +0.008 A 
ATOM     18  C   LIG    1       16.061 135.922  27.673  0.00  0.00    +0.001 A 
ATOM     19  C   LIG    1       16.090 135.363  26.396  0.00  0.00    +0.000 A 
ATOM     20  C   LIG    1       15.368 135.954  25.359  0.00  0.00    +0.001 A 
ATOM     21  C   LIG    1       14.618 137.106  25.601  0.00  0.00    +0.008 A 
ENDBRANCH  15  16
ENDBRANCH  13  14
ENDBRANCH  12  13
ENDBRANCH   2  12
BRANCH  22  23
ATOM     23  C   LIG    1       11.865 144.545  30.261  0.00  0.00    +0.197 C 
BRANCH  23  24
ATOM     24  O   LIG    1       10.912 145.058  29.348  0.00  0.00    -0.346 OA
BRANCH  24  25
ATOM     25  C   LIG    1       10.161 146.127  29.912  0.00  0.00    +0.281 C 
ATOM     26  C   LIG    1        9.783 147.136  28.817  0.00  0.00    +0.201 C 
ATOM     27  C   LIG    1        8.668 146.610  27.908  0.00  0.00    +0.178 C 
ATOM     28  C   LIG    1        7.512 146.068  28.751  0.00  0.00    +0.171 C 
ATOM     29  C   LIG    1        8.021 145.063  29.776  0.00  0.00    +0.197 C 
ATOM     36  O   LIG    1        9.006 145.658  30.618  0.00  0.00    -0.346 OA
BRANCH  28  30
ATOM     30  O   LIG    1        6.540 145.466  27.908  0.00  0.00    -0.387 OA
ATOM     31  H   LIG    1        5.782 145.218  28.464  0.00  0.00    +0.210 HD
ENDBRANCH  28  30
BRANCH  27  32
ATOM     32  O   LIG    1        9.179 145.565  27.082  0.00  0.00    -0.386 OA
ATOM     33  H   LIG    1       10.145 145.669  27.042  0.00  0.00    +0.210 HD
ENDBRANCH  27  32
BRANCH  26  34
ATOM     34  O   LIG    1        9.346 148.335  29.454  0.00  0.00    -0.384 OA
ATOM     35  H   LIG    1        8.601 148.119  30.039  0.00  0.00    +0.210 HD
ENDBRANCH  26  34
ENDBRANCH  24  25
ENDBRANCH  23  24
ENDBRANCH  22  23
TORSDOF 13
ENDMDL
MODEL 2
REMARK VINA RESULT:      -7.5      2.331      3.266
REMARK  Name = 9823887
REMARK                            x       y       z     vdW  Elec       q    Type
REMARK                         _______ _______ _______ _____ _____    ______ ____
ROOT
ATOM      1  O   LIG    1       13.025 143.558  28.370  0.00  0.00    -0.341 OA
ATOM      2  C   LIG    1       14.272 143.233  27.760  0.00  0.00    +0.282 C 
ATOM      3  C   LIG    1       14.932 144.490  27.190  0.00  0.00    +0.201 C 
ATOM      4  C   LIG    1       15.059 145.582  28.250  0.00  0.00    +0.179 C 
ATOM      5  C   LIG    1       13.739 145.790  28.992  0.00  0.00    +0.177 C 
ATOM     22  C   LIG    1       13.171 144.452  29.475  0.00  0.00    +0.178 C 
ENDROOT
BRANCH   5   6
ATOM      6  O   LIG    1       13.957 146.641  30.114  0.00  0.00    -0.386 OA
ATOM      7  H   LIG    1       13.915 146.095  30.918  0.00  0.00    +0.210 HD
ENDBRANCH   5   6
BRANCH   4   8
ATOM      8  O   LIG    1       15.410 146.816  27.622  0.00  0.00    -0.386 OA
ATOM      9  H   LIG    1       15.373 147.510  28.302  0.00  0.00    +0.210 HD
ENDBRANCH   4   8
BRANCH   3  10
ATOM     10  O   LIG    1       16.231 144.136  26.715  0.00  0.00    -0.384 OA
ATOM     11  H   LIG    1       16.718 144.956  26.530  0.00  0.00    +0.210 HD
ENDBRANCH   3  10
BRANCH   2  12
ATOM     12  O   LIG    1       14.060 142.320  26.685  0.00  0.00    -0.345 OA
BRANCH  12  13
ATOM     13  C   LIG    1       13.466 141.115  27.140  0.00  0.00    +0.190 C 
BRANCH  13  14
ATOM     14  C   LIG    1       12.615 140.555  26.047  0.00  0.00    +0.001 C 
ATOM     15  C   LIG    1       12.616 141.033  24.793  0.00  0.00    +0.006 C 
BRANCH  15  16
ATOM     16  C   LIG    1       11.807 140.505  23.682  0.00  0.00    -0.025 A 
ATOM     17  C   LIG    1       10.837 141.310  23.104  0.00  0.00    +0.008 A 
ATOM     18  C   LIG    1       10.072 140.808  22.052  0.00  0.00    +0.001 A 
ATOM     19  C   LIG    1       10.284 139.509  21.591  0.00  0.00    +0.000 A 
ATOM     20  C   LIG    1       11.263 138.711  22.182  0.00  0.00    +0.001 A 
ATOM     21  C   LIG    1       12.029 139.212  23.234  0.00  0.00    +0.008 A 
ENDBRANCH  15  16
ENDBRANCH  13  14
ENDBRANCH  12  13
ENDBRANCH   2  12
BRANCH  22  23
ATOM     23  C   LIG    1       11.797 144.620  30.116  0.00  0.00    +0.197 C 
BRANCH  23  24
ATOM     24  O   LIG    1       10.996 145.417  29.263  0.00  0.00    -0.346 OA
BRANCH  24  25
ATOM     25  C   LIG    1       10.120 146.263  30.000  0.00  0.00    +0.281 C 
ATOM     26  C   LIG    1        9.556 147.358  29.082  0.00  0.00    +0.201 C 
ATOM     27  C   LIG    1        8.494 146.814  28.120  0.00  0.00    +0.178 C 
ATOM     28  C   LIG    1        7.464 145.984  28.888  0.00  0.00    +0.171 C 
ATOM     29  C   LIG    1        8.154 144.923  29.736  0.00  0.00    +0.197 C 
ATOM     36  O   LIG    1        9.075 145.525  30.643  0.00  0.00    -0.346 OA
BRANCH  28  30
ATOM     30  O   LIG    1        6.557 145.378  27.978  0.00  0.00    -0.387 OA
ATOM     31  H   LIG    1        5.914 146.056  27.709  0.00  0.00    +0.210 HD
ENDBRANCH  28  30
BRANCH  27  32
ATOM     32  O   LIG    1        9.118 145.994  27.133  0.00  0.00    -0.386 OA
ATOM     33  H   LIG    1        9.044 146.456  26.280  0.00  0.00    +0.210 HD
ENDBRANCH  27  32
BRANCH  26  34
ATOM     34  O   LIG    1        8.975 148.367  29.904  0.00  0.00    -0.384 OA
ATOM     35  H   LIG    1        9.360 148.299  30.793  0.00  0.00    +0.210 HD
ENDBRANCH  26  34
ENDBRANCH  24  25
ENDBRANCH  23  24
ENDBRANCH  22  23
TORSDOF 13
ENDMDL
MODEL 3
REMARK VINA RESULT:      -7.4     16.332     18.413
REMARK  Name = 9823887
REMARK                            x       y       z     vdW  Elec       q    Type
REMARK                         _______ _______ _______ _____ _____    ______ ____
ROOT
ATOM      1  O   LIG    1       21.566 158.445  26.921  0.00  0.00    -0.341 OA
ATOM      2  C   LIG    1       22.234 157.294  27.432  0.00  0.00    +0.282 C 
ATOM      3  C   LIG    1       21.639 156.019  26.831  0.00  0.00    +0.201 C 
ATOM      4  C   LIG    1       21.636 156.073  25.304  0.00  0.00    +0.179 C 
ATOM      5  C   LIG    1       21.056 157.393  24.797  0.00  0.00    +0.177 C 
ATOM     22  C   LIG    1       21.711 158.581  25.507  0.00  0.00    +0.178 C 
ENDROOT
BRANCH   5   6
ATOM      6  O   LIG    1       21.281 157.500  23.394  0.00  0.00    -0.386 OA
ATOM      7  H   LIG    1       20.699 158.200  23.050  0.00  0.00    +0.210 HD
ENDBRANCH   5   6
BRANCH   4   8
ATOM      8  O   LIG    1       20.828 155.011  24.793  0.00  0.00    -0.386 OA
ATOM      9  H   LIG    1       21.316 154.182  24.929  0.00  0.00    +0.210 HD
ENDBRANCH   4   8
BRANCH   3  10
ATOM     10  O   LIG    1       22.427 154.911  27.265  0.00  0.00    -0.384 OA
ATOM     11  H   LIG    1       23.102 154.738  26.588  0.00  0.00    +0.210 HD
ENDBRANCH   3  10
BRANCH   2  12
ATOM     12  O   LIG    1       22.073 157.231  28.847  0.00  0.00    -0.345 OA
BRANCH  12  13
ATOM     13  C   LIG    1       22.640 158.365  29.483  0.00  0.00    +0.190 C 
BRANCH  13  14
ATOM     14  C   LIG    1       23.563 157.901  30.563  0.00  0.00    +0.001 C 
ATOM     15  C   LIG    1       23.304 156.846  31.351  0.00  0.00    +0.006 C 
BRANCH  15  16
ATOM     16  C   LIG    1       24.189 156.344  32.417  0.00  0.00    -0.025 A 
ATOM     17  C   LIG    1       23.632 155.837  33.580  0.00  0.00    +0.008 A 
ATOM     18  C   LIG    1       24.470 155.362  34.588  0.00  0.00    +0.001 A 
ATOM     19  C   LIG    1       25.854 155.401  34.421  0.00  0.00    +0.000 A 
ATOM     20  C   LIG    1       26.401 155.914  33.245  0.00  0.00    +0.001 A 
ATOM     21  C   LIG    1       25.562 156.389  32.236  0.00  0.00    +0.008 A 
ENDBRANCH  15  16
ENDBRANCH  13  14
ENDBRANCH  12  13
ENDBRANCH   2  12
BRANCH  22  23
ATOM     23  C   LIG    1       21.068 159.905  25.103  0.00  0.00    +0.197 C 
BRANCH  23  24
ATOM     24  O   LIG    1       20.010 160.184  26.001  0.00  0.00    -0.346 OA
BRANCH  24  25
ATOM     25  C   LIG    1       19.654 161.563  25.985  0.00  0.00    +0.281 C 
ATOM     26  C   LIG    1       19.092 161.942  24.607  0.00  0.00    +0.201 C 
ATOM     27  C   LIG    1       17.675 161.400  24.393  0.00  0.00    +0.178 C 
ATOM     28  C   LIG    1       16.793 161.741  25.596  0.00  0.00    +0.171 C 
ATOM     29  C   LIG    1       17.455 161.290  26.891  0.00  0.00    +0.197 C 
ATOM     36  O   LIG    1       18.739 161.893  27.036  0.00  0.00    -0.346 OA
BRANCH  28  30
ATOM     30  O   LIG    1       15.520 161.128  25.450  0.00  0.00    -0.387 OA
ATOM     31  H   LIG    1       15.667 160.188  25.247  0.00  0.00    +0.210 HD
ENDBRANCH  28  30
BRANCH  27  32
ATOM     32  O   LIG    1       17.724 159.983  24.232  0.00  0.00    -0.386 OA
ATOM     33  H   LIG    1       18.377 159.790  23.536  0.00  0.00    +0.210 HD
ENDBRANCH  27  32
BRANCH  26  34
ATOM     34  O   LIG    1       19.072 163.364  24.515  0.00  0.00    -0.384 OA
ATOM     35  H   LIG    1       18.444 163.619  23.818  0.00  0.00    +0.210 HD
ENDBRANCH  26  34
ENDBRANCH  24  25
ENDBRANCH  23  24
ENDBRANCH  22  23
TORSDOF 13
ENDMDL
MODEL 4
REMARK VINA RESULT:      -7.4      2.298      3.776
REMARK  Name = 9823887
REMARK                            x       y       z     vdW  Elec       q    Type
REMARK                         _______ _______ _______ _____ _____    ______ ____
ROOT
ATOM      1  O   LIG    1       12.966 143.658  28.483  0.00  0.00    -0.341 OA
ATOM      2  C   LIG    1       14.216 143.265  27.920  0.00  0.00    +0.282 C 
ATOM      3  C   LIG    1       14.844 144.425  27.147  0.00  0.00    +0.201 C 
ATOM      4  C   LIG    1       14.953 145.678  28.015  0.00  0.00    +0.179 C 
ATOM      5  C   LIG    1       13.635 145.975  28.728  0.00  0.00    +0.177 C 
ATOM     22  C   LIG    1       13.100 144.722  29.426  0.00  0.00    +0.178 C 
ENDROOT
BRANCH   5   6
ATOM      6  O   LIG    1       13.841 147.002  29.694  0.00  0.00    -0.386 OA
ATOM      7  H   LIG    1       13.271 146.812  30.460  0.00  0.00    +0.210 HD
ENDBRANCH   5   6
BRANCH   4   8
ATOM      8  O   LIG    1       15.273 146.801  27.192  0.00  0.00    -0.386 OA
ATOM      9  H   LIG    1       14.633 146.817  26.460  0.00  0.00    +0.210 HD
ENDBRANCH   4   8
BRANCH   3  10
ATOM     10  O   LIG    1       16.147 144.026  26.723  0.00  0.00    -0.384 OA
ATOM     11  H   LIG    1       16.172 143.055  26.698  0.00  0.00    +0.210 HD
ENDBRANCH   3  10
BRANCH   2  12
ATOM     12  O   LIG    1       14.016 142.185  27.010  0.00  0.00    -0.345 OA
BRANCH  12  13
ATOM     13  C   LIG    1       12.956 141.342  27.432  0.00  0.00    +0.190 C 
BRANCH  13  14
ATOM     14  C   LIG    1       13.470 139.944  27.550  0.00  0.00    +0.001 C 
ATOM     15  C   LIG    1       14.283 139.378  26.644  0.00  0.00    +0.006 C 
BRANCH  15  16
ATOM     16  C   LIG    1       14.825 138.011  26.725  0.00  0.00    -0.025 A 
ATOM     17  C   LIG    1       15.323 137.549  27.933  0.00  0.00    +0.008 A 
ATOM     18  C   LIG    1       15.836 136.255  28.010  0.00  0.00    +0.001 A 
ATOM     19  C   LIG    1       15.846 135.439  26.879  0.00  0.00    +0.000 A 
ATOM     20  C   LIG    1       15.341 135.917  25.670  0.00  0.00    +0.001 A 
ATOM     21  C   LIG    1       14.828 137.212  25.593  0.00  0.00    +0.008 A 
ENDBRANCH  15  16
ENDBRANCH  13  14
ENDBRANCH  12  13
ENDBRANCH   2  12
BRANCH  22  23
ATOM     23  C   LIG    1       11.727 144.964  30.046  0.00  0.00    +0.197 C 
BRANCH  23  24
ATOM     24  O   LIG    1       11.887 145.781  31.191  0.00  0.00    -0.346 OA
BRANCH  24  25
ATOM     25  C   LIG    1       11.902 145.013  32.390  0.00  0.00    +0.281 C 
ATOM     26  C   LIG    1       13.331 144.948  32.951  0.00  0.00    +0.201 C 
ATOM     27  C   LIG    1       13.759 146.272  33.594  0.00  0.00    +0.178 C 
ATOM     28  C   LIG    1       12.679 146.762  34.559  0.00  0.00    +0.171 C 
ATOM     29  C   LIG    1       11.321 146.802  33.871  0.00  0.00    +0.197 C 
ATOM     36  O   LIG    1       10.977 145.516  33.361  0.00  0.00    -0.346 OA
BRANCH  28  30
ATOM     30  O   LIG    1       13.022 148.048  35.055  0.00  0.00    -0.387 OA
ATOM     31  H   LIG    1       12.366 148.287  35.732  0.00  0.00    +0.210 HD
ENDBRANCH  28  30
BRANCH  27  32
ATOM     32  O   LIG    1       13.962 147.252  32.577  0.00  0.00    -0.386 OA
ATOM     33  H   LIG    1       14.041 146.783  31.729  0.00  0.00    +0.210 HD
ENDBRANCH  27  32
BRANCH  26  34
ATOM     34  O   LIG    1       13.374 143.913  33.930  0.00  0.00    -0.384 OA
ATOM     35  H   LIG    1       12.711 144.108  34.613  0.00  0.00    +0.210 HD
ENDBRANCH  26  34
ENDBRANCH  24  25
ENDBRANCH  23  24
ENDBRANCH  22  23
TORSDOF 13
ENDMDL
MODEL 5
REMARK VINA RESULT:      -7.4      2.765      8.571
REMARK  Name = 9823887
REMARK                            x       y       z     vdW  Elec       q    Type
REMARK                         _______ _______ _______ _____ _____    ______ ____
ROOT
ATOM      1  O   LIG    1       13.346 144.057  29.518  0.00  0.00    -0.341 OA
ATOM      2  C   LIG    1       13.642 145.418  29.214  0.00  0.00    +0.282 C 
ATOM      3  C   LIG    1       14.929 145.516  28.395  0.00  0.00    +0.201 C 
ATOM      4  C   LIG    1       14.866 144.632  27.150  0.00  0.00    +0.179 C 
ATOM      5  C   LIG    1       14.390 143.222  27.496  0.00  0.00    +0.177 C 
ATOM     22  C   LIG    1       13.119 143.271  28.347  0.00  0.00    +0.178 C 
ENDROOT
BRANCH   5   6
ATOM      6  O   LIG    1       14.125 142.505  26.293  0.00  0.00    -0.386 OA
ATOM      7  H   LIG    1       13.959 143.154  25.587  0.00  0.00    +0.210 HD
ENDBRANCH   5   6
BRANCH   4   8
ATOM      8  O   LIG    1       16.169 144.530  26.572  0.00  0.00    -0.386 OA
ATOM      9  H   LIG    1       16.344 143.586  26.415  0.00  0.00    +0.210 HD
ENDBRANCH   4   8
BRANCH   3  10
ATOM     10  O   LIG    1       15.107 146.877  28.002  0.00  0.00    -0.384 OA
ATOM     11  H   LIG    1       14.985 147.436  28.788  0.00  0.00    +0.210 HD
ENDBRANCH   3  10
BRANCH   2  12
ATOM     12  O   LIG    1       13.831 146.152  30.422  0.00  0.00    -0.345 OA
BRANCH  12  13
ATOM     13  C   LIG    1       12.617 146.282  31.144  0.00  0.00    +0.190 C 
BRANCH  13  14
ATOM     14  C   LIG    1       11.569 146.827  30.229  0.00  0.00    +0.001 C 
ATOM     15  C   LIG    1       10.325 147.130  30.631  0.00  0.00    +0.006 C 
BRANCH  15  16
ATOM     16  C   LIG    1        9.265 147.683  29.770  0.00  0.00    -0.025 A 
ATOM     17  C   LIG    1        8.337 146.826  29.199  0.00  0.00    +0.008 A 
ATOM     18  C   LIG    1        7.334 147.350  28.385  0.00  0.00    +0.001 A 
ATOM     19  C   LIG    1        7.272 148.723  28.149  0.00  0.00    +0.000 A 
ATOM     20  C   LIG    1        8.212 149.573  28.730  0.00  0.00    +0.001 A 
ATOM     21  C   LIG    1        9.216 149.050  29.545  0.00  0.00    +0.008 A 
ENDBRANCH  15  16
ENDBRANCH  13  14
ENDBRANCH  12  13
ENDBRANCH   2  12
BRANCH  22  23
ATOM     23  C   LIG    1       12.690 141.879  28.803  0.00  0.00    +0.197 C 
BRANCH  23  24
ATOM     24  O   LIG    1       12.198 141.169  27.681  0.00  0.00    -0.346 OA
BRANCH  24  25
ATOM     25  C   LIG    1       12.205 139.763  27.901  0.00  0.00    +0.281 C 
ATOM     26  C   LIG    1       11.010 139.115  27.185  0.00  0.00    +0.201 C 
ATOM     27  C   LIG    1       11.213 139.049  25.668  0.00  0.00    +0.178 C 
ATOM     28  C   LIG    1       12.589 138.462  25.346  0.00  0.00    +0.171 C 
ATOM     29  C   LIG    1       13.681 139.210  26.099  0.00  0.00    +0.197 C 
ATOM     36  O   LIG    1       13.444 139.164  27.504  0.00  0.00    -0.346 OA
BRANCH  28  30
ATOM     30  O   LIG    1       12.823 138.521  23.946  0.00  0.00    -0.387 OA
ATOM     31  H   LIG    1       13.381 139.298  23.774  0.00  0.00    +0.210 HD
ENDBRANCH  28  30
BRANCH  27  32
ATOM     32  O   LIG    1       11.120 140.361  25.115  0.00  0.00    -0.386 OA
ATOM     33  H   LIG    1       11.844 140.461  24.473  0.00  0.00    +0.210 HD
ENDBRANCH  27  32
BRANCH  26  34
ATOM     34  O   LIG    1       10.851 137.795  27.698  0.00  0.00    -0.384 OA
ATOM     35  H   LIG    1       11.381 137.714  28.509  0.00  0.00    +0.210 HD
ENDBRANCH  26  34
ENDBRANCH  24  25
ENDBRANCH  23  24
ENDBRANCH  22  23
TORSDOF 13
ENDMDL
MODEL 6
REMARK VINA RESULT:      -7.4     17.657     20.848
REMARK  Name = 9823887
REMARK                            x       y       z     vdW  Elec       q    Type
REMARK                         _______ _______ _______ _____ _____    ______ ____
ROOT
ATOM      1  O   LIG    1       21.578 160.082  27.272  0.00  0.00    -0.341 OA
ATOM      2  C   LIG    1       22.197 158.803  27.388  0.00  0.00    +0.282 C 
ATOM      3  C   LIG    1       21.465 157.774  26.525  0.00  0.00    +0.201 C 
ATOM      4  C   LIG    1       21.347 158.245  25.077  0.00  0.00    +0.179 C 
ATOM      5  C   LIG    1       20.829 159.681  25.002  0.00  0.00    +0.177 C 
ATOM     22  C   LIG    1       21.623 160.594  25.940  0.00  0.00    +0.178 C 
ENDROOT
BRANCH   5   6
ATOM      6  O   LIG    1       20.951 160.158  23.664  0.00  0.00    -0.386 OA
ATOM      7  H   LIG    1       20.536 161.037  23.621  0.00  0.00    +0.210 HD
ENDBRANCH   5   6
BRANCH   4   8
ATOM      8  O   LIG    1       20.425 157.407  24.377  0.00  0.00    -0.386 OA
ATOM      9  H   LIG    1       19.577 157.448  24.850  0.00  0.00    +0.210 HD
ENDBRANCH   4   8
BRANCH   3  10
ATOM     10  O   LIG    1       22.200 156.551  26.568  0.00  0.00    -0.384 OA
ATOM     11  H   LIG    1       21.672 155.867  26.123  0.00  0.00    +0.210 HD
ENDBRANCH   3  10
BRANCH   2  12
ATOM     12  O   LIG    1       22.141 158.361  28.743  0.00  0.00    -0.345 OA
BRANCH  12  13
ATOM     13  C   LIG    1       22.871 159.226  29.599  0.00  0.00    +0.190 C 
BRANCH  13  14
ATOM     14  C   LIG    1       23.294 158.459  30.810  0.00  0.00    +0.001 C 
ATOM     15  C   LIG    1       24.093 157.382  30.759  0.00  0.00    +0.006 C 
BRANCH  15  16
ATOM     16  C   LIG    1       24.547 156.605  31.925  0.00  0.00    -0.025 A 
ATOM     17  C   LIG    1       25.903 156.523  32.200  0.00  0.00    +0.008 A 
ATOM     18  C   LIG    1       26.333 155.788  33.305  0.00  0.00    +0.001 A 
ATOM     19  C   LIG    1       25.402 155.144  34.119  0.00  0.00    +0.000 A 
ATOM     20  C   LIG    1       24.041 155.235  33.830  0.00  0.00    +0.001 A 
ATOM     21  C   LIG    1       23.611 155.970  32.726  0.00  0.00    +0.008 A 
ENDBRANCH  15  16
ENDBRANCH  13  14
ENDBRANCH  12  13
ENDBRANCH   2  12
BRANCH  22  23
ATOM     23  C   LIG    1       21.050 162.008  25.970  0.00  0.00    +0.197 C 
BRANCH  23  24
ATOM     24  O   LIG    1       22.125 162.930  25.964  0.00  0.00    -0.346 OA
BRANCH  24  25
ATOM     25  C   LIG    1       23.204 162.477  25.155  0.00  0.00    +0.281 C 
ATOM     26  C   LIG    1       23.130 163.135  23.768  0.00  0.00    +0.201 C 
ATOM     27  C   LIG    1       23.554 164.607  23.805  0.00  0.00    +0.178 C 
ATOM     28  C   LIG    1       24.882 164.754  24.549  0.00  0.00    +0.171 C 
ATOM     29  C   LIG    1       24.810 164.081  25.914  0.00  0.00    +0.197 C 
ATOM     36  O   LIG    1       24.474 162.703  25.778  0.00  0.00    -0.346 OA
BRANCH  28  30
ATOM     30  O   LIG    1       25.206 166.130  24.691  0.00  0.00    -0.387 OA
ATOM     31  H   LIG    1       26.113 166.254  24.362  0.00  0.00    +0.210 HD
ENDBRANCH  28  30
BRANCH  27  32
ATOM     32  O   LIG    1       22.553 165.375  24.471  0.00  0.00    -0.386 OA
ATOM     33  H   LIG    1       22.492 165.048  25.385  0.00  0.00    +0.210 HD
ENDBRANCH  27  32
BRANCH  26  34
ATOM     34  O   LIG    1       23.995 162.416  22.893  0.00  0.00    -0.384 OA
ATOM     35  H   LIG    1       23.986 162.852  22.024  0.00  0.00    +0.210 HD
ENDBRANCH  26  34
ENDBRANCH  24  25
ENDBRANCH  23  24
ENDBRANCH  22  23
TORSDOF 13
ENDMDL
MODEL 7
REMARK VINA RESULT:      -7.2     21.944     25.680
REMARK  Name = 9823887
REMARK                            x       y       z     vdW  Elec       q    Type
REMARK                         _______ _______ _______ _____ _____    ______ ____
ROOT
ATOM      1  O   LIG    1       17.552 164.893  18.135  0.00  0.00    -0.341 OA
ATOM      2  C   LIG    1       18.930 164.598  17.921  0.00  0.00    +0.282 C 
ATOM      3  C   LIG    1       19.084 163.291  17.141  0.00  0.00    +0.201 C 
ATOM      4  C   LIG    1       18.276 163.319  15.845  0.00  0.00    +0.179 C 
ATOM      5  C   LIG    1       16.845 163.793  16.093  0.00  0.00    +0.177 C 
ATOM     22  C   LIG    1       16.836 165.086  16.914  0.00  0.00    +0.178 C 
ENDROOT
BRANCH   5   6
ATOM      6  O   LIG    1       16.200 164.024  14.843  0.00  0.00    -0.386 OA
ATOM      7  H   LIG    1       16.890 164.112  14.162  0.00  0.00    +0.210 HD
ENDBRANCH   5   6
BRANCH   4   8
ATOM      8  O   LIG    1       18.215 162.001  15.294  0.00  0.00    -0.386 OA
ATOM      9  H   LIG    1       18.979 161.507  15.638  0.00  0.00    +0.210 HD
ENDBRANCH   4   8
BRANCH   3  10
ATOM     10  O   LIG    1       20.467 163.113  16.836  0.00  0.00    -0.384 OA
ATOM     11  H   LIG    1       20.940 163.921  17.097  0.00  0.00    +0.210 HD
ENDBRANCH   3  10
BRANCH   2  12
ATOM     12  O   LIG    1       19.591 164.443  19.175  0.00  0.00    -0.345 OA
BRANCH  12  13
ATOM     13  C   LIG    1       19.302 165.524  20.048  0.00  0.00    +0.190 C 
BRANCH  13  14
ATOM     14  C   LIG    1       20.088 166.718  19.612  0.00  0.00    +0.001 C 
ATOM     15  C   LIG    1       19.636 167.977  19.721  0.00  0.00    +0.006 C 
BRANCH  15  16
ATOM     16  C   LIG    1       20.379 169.184  19.318  0.00  0.00    -0.025 A 
ATOM     17  C   LIG    1       20.425 169.538  17.979  0.00  0.00    +0.008 A 
ATOM     18  C   LIG    1       21.129 170.680  17.599  0.00  0.00    +0.001 A 
ATOM     19  C   LIG    1       21.778 171.453  18.561  0.00  0.00    +0.000 A 
ATOM     20  C   LIG    1       21.723 171.085  19.905  0.00  0.00    +0.001 A 
ATOM     21  C   LIG    1       21.019 169.942  20.286  0.00  0.00    +0.008 A 
ENDBRANCH  15  16
ENDBRANCH  13  14
ENDBRANCH  12  13
ENDBRANCH   2  12
BRANCH  22  23
ATOM     23  C   LIG    1       15.418 165.516  17.274  0.00  0.00    +0.197 C 
BRANCH  23  24
ATOM     24  O   LIG    1       15.106 165.011  18.560  0.00  0.00    -0.346 OA
BRANCH  24  25
ATOM     25  C   LIG    1       13.958 164.171  18.533  0.00  0.00    +0.281 C 
ATOM     26  C   LIG    1       14.369 162.734  18.175  0.00  0.00    +0.201 C 
ATOM     27  C   LIG    1       15.068 162.027  19.340  0.00  0.00    +0.178 C 
ATOM     28  C   LIG    1       14.250 162.193  20.623  0.00  0.00    +0.171 C 
ATOM     29  C   LIG    1       13.933 163.662  20.872  0.00  0.00    +0.197 C 
ATOM     36  O   LIG    1       13.228 164.218  19.764  0.00  0.00    -0.346 OA
BRANCH  28  30
ATOM     30  O   LIG    1       14.963 161.646  21.723  0.00  0.00    -0.387 OA
ATOM     31  H   LIG    1       14.330 161.140  22.261  0.00  0.00    +0.210 HD
ENDBRANCH  28  30
BRANCH  27  32
ATOM     32  O   LIG    1       16.364 162.590  19.532  0.00  0.00    -0.386 OA
ATOM     33  H   LIG    1       16.961 161.868  19.797  0.00  0.00    +0.210 HD
ENDBRANCH  27  32
BRANCH  26  34
ATOM     34  O   LIG    1       13.191 162.013  17.823  0.00  0.00    -0.384 OA
ATOM     35  H   LIG    1       12.444 162.635  17.801  0.00  0.00    +0.210 HD
ENDBRANCH  26  34
ENDBRANCH  24  25
ENDBRANCH  23  24
ENDBRANCH  22  23
TORSDOF 13
ENDMDL
MODEL 8
REMARK VINA RESULT:      -7.1     20.921     24.369
REMARK  Name = 9823887
REMARK                            x       y       z     vdW  Elec       q    Type
REMARK                         _______ _______ _______ _____ _____    ______ ____
ROOT
ATOM      1  O   LIG    1       17.470 164.992  18.037  0.00  0.00    -0.341 OA
ATOM      2  C   LIG    1       18.857 164.750  17.816  0.00  0.00    +0.282 C 
ATOM      3  C   LIG    1       19.061 163.415  17.099  0.00  0.00    +0.201 C 
ATOM      4  C   LIG    1       18.235 163.340  15.816  0.00  0.00    +0.179 C 
ATOM      5  C   LIG    1       16.787 163.761  16.064  0.00  0.00    +0.177 C 
ATOM     22  C   LIG    1       16.729 165.091  16.820  0.00  0.00    +0.178 C 
ENDROOT
BRANCH   5   6
ATOM      6  O   LIG    1       16.115 163.899  14.815  0.00  0.00    -0.386 OA
ATOM      7  H   LIG    1       15.635 164.746  14.825  0.00  0.00    +0.210 HD
ENDBRANCH   5   6
BRANCH   4   8
ATOM      8  O   LIG    1       18.228 161.996  15.332  0.00  0.00    -0.386 OA
ATOM      9  H   LIG    1       17.685 161.980  14.526  0.00  0.00    +0.210 HD
ENDBRANCH   4   8
BRANCH   3  10
ATOM     10  O   LIG    1       20.446 163.286  16.780  0.00  0.00    -0.384 OA
ATOM     11  H   LIG    1       20.516 162.854  15.912  0.00  0.00    +0.210 HD
ENDBRANCH   3  10
BRANCH   2  12
ATOM     12  O   LIG    1       19.542 164.689  19.066  0.00  0.00    -0.345 OA
BRANCH  12  13
ATOM     13  C   LIG    1       19.491 165.933  19.745  0.00  0.00    +0.190 C 
BRANCH  13  14
ATOM     14  C   LIG    1       20.778 166.135  20.477  0.00  0.00    +0.001 C 
ATOM     15  C   LIG    1       21.206 165.321  21.454  0.00  0.00    +0.006 C 
BRANCH  15  16
ATOM     16  C   LIG    1       22.472 165.472  22.192  0.00  0.00    -0.025 A 
ATOM     17  C   LIG    1       23.045 166.729  22.308  0.00  0.00    +0.008 A 
ATOM     18  C   LIG    1       24.243 166.871  23.006  0.00  0.00    +0.001 A 
ATOM     19  C   LIG    1       24.854 165.756  23.580  0.00  0.00    +0.000 A 
ATOM     20  C   LIG    1       24.266 164.497  23.455  0.00  0.00    +0.001 A 
ATOM     21  C   LIG    1       23.067 164.355  22.756  0.00  0.00    +0.008 A 
ENDBRANCH  15  16
ENDBRANCH  13  14
ENDBRANCH  12  13
ENDBRANCH   2  12
BRANCH  22  23
ATOM     23  C   LIG    1       15.297 165.473  17.182  0.00  0.00    +0.197 C 
BRANCH  23  24
ATOM     24  O   LIG    1       15.013 164.981  18.479  0.00  0.00    -0.346 OA
BRANCH  24  25
ATOM     25  C   LIG    1       13.895 164.100  18.476  0.00  0.00    +0.281 C 
ATOM     26  C   LIG    1       14.353 162.675  18.131  0.00  0.00    +0.201 C 
ATOM     27  C   LIG    1       15.090 162.008  19.298  0.00  0.00    +0.178 C 
ATOM     28  C   LIG    1       14.281 162.161  20.587  0.00  0.00    +0.171 C 
ATOM     29  C   LIG    1       13.915 163.621  20.821  0.00  0.00    +0.197 C 
ATOM     36  O   LIG    1       13.178 164.138  19.715  0.00  0.00    -0.346 OA
BRANCH  28  30
ATOM     30  O   LIG    1       15.025 161.655  21.687  0.00  0.00    -0.387 OA
ATOM     31  H   LIG    1       14.556 160.872  22.023  0.00  0.00    +0.210 HD
ENDBRANCH  28  30
BRANCH  27  32
ATOM     32  O   LIG    1       16.368 162.619  19.468  0.00  0.00    -0.386 OA
ATOM     33  H   LIG    1       16.385 163.420  18.916  0.00  0.00    +0.210 HD
ENDBRANCH  27  32
BRANCH  26  34
ATOM     34  O   LIG    1       13.198 161.907  17.802  0.00  0.00    -0.384 OA
ATOM     35  H   LIG    1       12.415 162.477  17.887  0.00  0.00    +0.210 HD
ENDBRANCH  26  34
ENDBRANCH  24  25
ENDBRANCH  23  24
ENDBRANCH  22  23
TORSDOF 13
ENDMDL
MODEL 9
REMARK VINA RESULT:      -7.0      7.983     10.383
REMARK  Name = 9823887
REMARK                            x       y       z     vdW  Elec       q    Type
REMARK                         _______ _______ _______ _____ _____    ______ ____
ROOT
ATOM      1  O   LIG    1       10.228 141.125  22.024  0.00  0.00    -0.341 OA
ATOM      2  C   LIG    1        8.872 141.096  21.585  0.00  0.00    +0.282 C 
ATOM      3  C   LIG    1        8.218 139.764  21.955  0.00  0.00    +0.201 C 
ATOM      4  C   LIG    1        8.364 139.468  23.447  0.00  0.00    +0.179 C 
ATOM      5  C   LIG    1        9.806 139.666  23.913  0.00  0.00    +0.177 C 
ATOM     22  C   LIG    1       10.348 141.018  23.443  0.00  0.00    +0.178 C 
ENDROOT
BRANCH   5   6
ATOM      6  O   LIG    1        9.855 139.606  25.336  0.00  0.00    -0.386 OA
ATOM      7  H   LIG    1        9.117 140.137  25.684  0.00  0.00    +0.210 HD
ENDBRANCH   5   6
BRANCH   4   8
ATOM      8  O   LIG    1        8.001 138.109  23.700  0.00  0.00    -0.386 OA
ATOM      9  H   LIG    1        7.621 138.072  24.594  0.00  0.00    +0.210 HD
ENDBRANCH   4   8
BRANCH   3  10
ATOM     10  O   LIG    1        6.833 139.837  21.619  0.00  0.00    -0.384 OA
ATOM     11  H   LIG    1        6.374 140.309  22.334  0.00  0.00    +0.210 HD
ENDBRANCH   3  10
BRANCH   2  12
ATOM     12  O   LIG    1        8.821 141.233  20.167  0.00  0.00    -0.345 OA
BRANCH  12  13
ATOM     13  C   LIG    1        9.478 140.155  19.519  0.00  0.00    +0.190 C 
BRANCH  13  14
ATOM     14  C   LIG    1        8.741 139.826  18.261  0.00  0.00    +0.001 C 
ATOM     15  C   LIG    1        8.369 140.750  17.362  0.00  0.00    +0.006 C 
BRANCH  15  16
ATOM     16  C   LIG    1        7.656 140.472  16.104  0.00  0.00    -0.025 A 
ATOM     17  C   LIG    1        6.271 140.536  16.079  0.00  0.00    +0.008 A 
ATOM     18  C   LIG    1        5.597 140.273  14.888  0.00  0.00    +0.001 A 
ATOM     19  C   LIG    1        6.313 139.948  13.737  0.00  0.00    +0.000 A 
ATOM     20  C   LIG    1        7.706 139.886  13.776  0.00  0.00    +0.001 A 
ATOM     21  C   LIG    1        8.381 140.150  14.968  0.00  0.00    +0.008 A 
ENDBRANCH  15  16
ENDBRANCH  13  14
ENDBRANCH  12  13
ENDBRANCH   2  12
BRANCH  22  23
ATOM     23  C   LIG    1       11.822 141.190  23.796  0.00  0.00    +0.197 C 
BRANCH  23  24
ATOM     24  O   LIG    1       11.938 141.319  25.201  0.00  0.00    -0.346 OA
BRANCH  24  25
ATOM     25  C   LIG    1       13.291 141.219  25.631  0.00  0.00    +0.281 C 
ATOM     26  C   LIG    1       13.405 141.645  27.103  0.00  0.00    +0.201 C 
ATOM     27  C   LIG    1       12.847 140.583  28.056  0.00  0.00    +0.178 C 
ATOM     28  C   LIG    1       13.421 139.208  27.707  0.00  0.00    +0.171 C 
ATOM     29  C   LIG    1       13.219 138.902  26.228  0.00  0.00    +0.197 C 
ATOM     36  O   LIG    1       13.826 139.907  25.420  0.00  0.00    -0.346 OA
BRANCH  28  30
ATOM     30  O   LIG    1       12.805 138.210  28.508  0.00  0.00    -0.387 OA
ATOM     31  H   LIG    1       12.325 138.663  29.224  0.00  0.00    +0.210 HD
ENDBRANCH  28  30
BRANCH  27  32
ATOM     32  O   LIG    1       11.425 140.541  27.944  0.00  0.00    -0.386 OA
ATOM     33  H   LIG    1       11.189 140.906  27.074  0.00  0.00    +0.210 HD
ENDBRANCH  27  32
BRANCH  26  34
ATOM     34  O   LIG    1       14.784 141.862  27.393  0.00  0.00    -0.384 OA
ATOM     35  H   LIG    1       14.920 142.811  27.549  0.00  0.00    +0.210 HD
ENDBRANCH  26  34
ENDBRANCH  24  25
ENDBRANCH  23  24
ENDBRANCH  22  23
TORSDOF 13
ENDMDL
