MODEL 1
REMARK VINA RESULT:      -8.1      0.000      0.000
REMARK  Name = 9823887
REMARK                            x       y       z     vdW  Elec       q    Type
REMARK                         _______ _______ _______ _____ _____    ______ ____
ROOT
ATOM      1  O   LIG    1       21.368 158.528  26.982  0.00  0.00    -0.341 OA
ATOM      2  C   LIG    1       22.252 157.481  27.376  0.00  0.00    +0.282 C 
ATOM      3  C   LIG    1       21.864 156.168  26.696  0.00  0.00    +0.201 C 
ATOM      4  C   LIG    1       21.779 156.330  25.179  0.00  0.00    +0.179 C 
ATOM      5  C   LIG    1       20.952 157.558  24.799  0.00  0.00    +0.177 C 
ATOM     22  C   LIG    1       21.420 158.790  25.578  0.00  0.00    +0.178 C 
ENDROOT
BRANCH   5   6
ATOM      6  O   LIG    1       21.088 157.805  23.402  0.00  0.00    -0.386 OA
ATOM      7  H   LIG    1       22.037 157.870  23.200  0.00  0.00    +0.210 HD
ENDBRANCH   5   6
BRANCH   4   8
ATOM      8  O   LIG    1       21.148 155.181  24.612  0.00  0.00    -0.386 OA
ATOM      9  H   LIG    1       20.945 154.571  25.342  0.00  0.00    +0.210 HD
ENDBRANCH   4   8
BRANCH   3  10
ATOM     10  O   LIG    1       22.855 155.191  27.014  0.00  0.00    -0.384 OA
ATOM     11  H   LIG    1       22.677 154.862  27.911  0.00  0.00    +0.210 HD
ENDBRANCH   3  10
BRANCH   2  12
ATOM     12  O   LIG    1       22.171 157.288  28.787  0.00  0.00    -0.345 OA
BRANCH  12  13
ATOM     13  C   LIG    1       22.610 158.438  29.492  0.00  0.00    +0.190 C 
BRANCH  13  14
ATOM     14  C   LIG    1       23.481 158.004  30.627  0.00  0.00    +0.001 C 
ATOM     15  C   LIG    1       23.360 156.815  31.236  0.00  0.00    +0.006 C 
BRANCH  15  16
ATOM     16  C   LIG    1       24.204 156.339  32.346  0.00  0.00    -0.025 A 
ATOM     17  C   LIG    1       23.602 155.836  33.489  0.00  0.00    +0.008 A 
ATOM     18  C   LIG    1       24.402 155.386  34.539  0.00  0.00    +0.001 A 
ATOM     19  C   LIG    1       25.791 155.445  34.435  0.00  0.00    +0.000 A 
ATOM     20  C   LIG    1       26.382 155.955  33.279  0.00  0.00    +0.001 A 
ATOM     21  C   LIG    1       25.583 156.405  32.228  0.00  0.00    +0.008 A 
ENDBRANCH  15  16
ENDBRANCH  13  14
ENDBRANCH  12  13
ENDBRANCH   2  12
BRANCH  22  23
ATOM     23  C   LIG    1       20.535 160.002  25.303  0.00  0.00    +0.197 C 
BRANCH  23  24
ATOM     24  O   LIG    1       21.194 160.839  24.370  0.00  0.00    -0.346 OA
BRANCH  24  25
ATOM     25  C   LIG    1       21.037 162.216  24.693  0.00  0.00    +0.281 C 
ATOM     26  C   LIG    1       22.175 162.670  25.620  0.00  0.00    +0.201 C 
ATOM     27  C   LIG    1       23.503 162.823  24.871  0.00  0.00    +0.178 C 
ATOM     28  C   LIG    1       23.298 163.653  23.602  0.00  0.00    +0.171 C 
ATOM     29  C   LIG    1       22.161 163.082  22.765  0.00  0.00    +0.197 C 
ATOM     36  O   LIG    1       20.953 163.036  23.522  0.00  0.00    -0.346 OA
BRANCH  28  30
ATOM     30  O   LIG    1       24.501 163.685  22.847  0.00  0.00    -0.387 OA
ATOM     31  H   LIG    1       24.895 164.568  22.959  0.00  0.00    +0.210 HD
ENDBRANCH  28  30
BRANCH  27  32
ATOM     32  O   LIG    1       24.003 161.535  24.516  0.00  0.00    -0.386 OA
ATOM     33  H   LIG    1       24.070 161.504  23.546  0.00  0.00    +0.210 HD
ENDBRANCH  27  32
BRANCH  26  34
ATOM     34  O   LIG    1       21.807 163.923  26.190  0.00  0.00    -0.384 OA
ATOM     35  H   LIG    1       21.986 163.892  27.145  0.00  0.00    +0.210 HD
ENDBRANCH  26  34
ENDBRANCH  24  25
ENDBRANCH  23  24
ENDBRANCH  22  23
TORSDOF 13
ENDMDL
MODEL 2
REMARK VINA RESULT:      -7.8     16.565     19.776
REMARK  Name = 9823887
REMARK                            x       y       z     vdW  Elec       q    Type
REMARK                         _______ _______ _______ _____ _____    ______ ____
ROOT
ATOM      1  O   LIG    1       13.072 143.575  28.412  0.00  0.00    -0.341 OA
ATOM      2  C   LIG    1       14.309 143.312  27.753  0.00  0.00    +0.282 C 
ATOM      3  C   LIG    1       14.902 144.605  27.193  0.00  0.00    +0.201 C 
ATOM      4  C   LIG    1       15.025 145.676  28.276  0.00  0.00    +0.179 C 
ATOM      5  C   LIG    1       13.724 145.816  29.066  0.00  0.00    +0.177 C 
ATOM     22  C   LIG    1       13.222 144.447  29.533  0.00  0.00    +0.178 C 
ENDROOT
BRANCH   5   6
ATOM      6  O   LIG    1       13.949 146.648  30.201  0.00  0.00    -0.386 OA
ATOM      7  H   LIG    1       14.905 146.661  30.379  0.00  0.00    +0.210 HD
ENDBRANCH   5   6
BRANCH   4   8
ATOM      8  O   LIG    1       15.309 146.937  27.668  0.00  0.00    -0.386 OA
ATOM      9  H   LIG    1       16.212 147.188  27.927  0.00  0.00    +0.210 HD
ENDBRANCH   4   8
BRANCH   3  10
ATOM     10  O   LIG    1       16.196 144.312  26.667  0.00  0.00    -0.384 OA
ATOM     11  H   LIG    1       16.744 143.964  27.391  0.00  0.00    +0.210 HD
ENDBRANCH   3  10
BRANCH   2  12
ATOM     12  O   LIG    1       14.094 142.417  26.663  0.00  0.00    -0.345 OA
BRANCH  12  13
ATOM     13  C   LIG    1       13.138 141.422  26.992  0.00  0.00    +0.190 C 
BRANCH  13  14
ATOM     14  C   LIG    1       13.850 140.130  27.232  0.00  0.00    +0.001 C 
ATOM     15  C   LIG    1       13.928 139.151  26.318  0.00  0.00    +0.006 C 
BRANCH  15  16
ATOM     16  C   LIG    1       14.631 137.869  26.504  0.00  0.00    -0.025 A 
ATOM     17  C   LIG    1       15.176 137.568  27.742  0.00  0.00    +0.008 A 
ATOM     18  C   LIG    1       15.841 136.354  27.918  0.00  0.00    +0.001 A 
ATOM     19  C   LIG    1       15.953 135.459  26.855  0.00  0.00    +0.000 A 
ATOM     20  C   LIG    1       15.399 135.776  25.614  0.00  0.00    +0.001 A 
ATOM     21  C   LIG    1       14.734 136.990  25.438  0.00  0.00    +0.008 A 
ENDBRANCH  15  16
ENDBRANCH  13  14
ENDBRANCH  12  13
ENDBRANCH   2  12
BRANCH  22  23
ATOM     23  C   LIG    1       11.866 144.548  30.224  0.00  0.00    +0.197 C 
BRANCH  23  24
ATOM     24  O   LIG    1       10.932 145.088  29.306  0.00  0.00    -0.346 OA
BRANCH  24  25
ATOM     25  C   LIG    1       10.172 146.144  29.886  0.00  0.00    +0.281 C 
ATOM     26  C   LIG    1        9.771 147.155  28.802  0.00  0.00    +0.201 C 
ATOM     27  C   LIG    1        8.654 146.620  27.899  0.00  0.00    +0.178 C 
ATOM     28  C   LIG    1        7.514 146.057  28.749  0.00  0.00    +0.171 C 
ATOM     29  C   LIG    1        8.046 145.052  29.763  0.00  0.00    +0.197 C 
ATOM     36  O   LIG    1        9.031 145.655  30.599  0.00  0.00    -0.346 OA
BRANCH  28  30
ATOM     30  O   LIG    1        6.541 145.449  27.911  0.00  0.00    -0.387 OA
ATOM     31  H   LIG    1        5.962 146.154  27.574  0.00  0.00    +0.210 HD
ENDBRANCH  28  30
BRANCH  27  32
ATOM     32  O   LIG    1        9.171 145.588  27.061  0.00  0.00    -0.386 OA
ATOM     33  H   LIG    1       10.140 145.605  27.139  0.00  0.00    +0.210 HD
ENDBRANCH  27  32
BRANCH  26  34
ATOM     34  O   LIG    1        9.325 148.343  29.451  0.00  0.00    -0.384 OA
ATOM     35  H   LIG    1        9.828 149.095  29.097  0.00  0.00    +0.210 HD
ENDBRANCH  26  34
ENDBRANCH  24  25
ENDBRANCH  23  24
ENDBRANCH  22  23
TORSDOF 13
ENDMDL
MODEL 3
REMARK VINA RESULT:      -7.6     16.346     20.079
REMARK  Name = 9823887
REMARK                            x       y       z     vdW  Elec       q    Type
REMARK                         _______ _______ _______ _____ _____    ______ ____
ROOT
ATOM      1  O   LIG    1       13.048 143.527  28.371  0.00  0.00    -0.341 OA
ATOM      2  C   LIG    1       14.282 143.213  27.730  0.00  0.00    +0.282 C 
ATOM      3  C   LIG    1       14.938 144.480  27.180  0.00  0.00    +0.201 C 
ATOM      4  C   LIG    1       15.089 145.545  28.265  0.00  0.00    +0.179 C 
ATOM      5  C   LIG    1       13.784 145.739  29.036  0.00  0.00    +0.177 C 
ATOM     22  C   LIG    1       13.218 144.392  29.494  0.00  0.00    +0.178 C 
ENDROOT
BRANCH   5   6
ATOM      6  O   LIG    1       14.026 146.561  30.175  0.00  0.00    -0.386 OA
ATOM      7  H   LIG    1       14.036 145.988  30.961  0.00  0.00    +0.210 HD
ENDBRANCH   5   6
BRANCH   4   8
ATOM      8  O   LIG    1       15.435 146.793  27.662  0.00  0.00    -0.386 OA
ATOM      9  H   LIG    1       15.137 146.761  26.737  0.00  0.00    +0.210 HD
ENDBRANCH   4   8
BRANCH   3  10
ATOM     10  O   LIG    1       16.226 144.132  26.673  0.00  0.00    -0.384 OA
ATOM     11  H   LIG    1       16.378 144.643  25.860  0.00  0.00    +0.210 HD
ENDBRANCH   3  10
BRANCH   2  12
ATOM     12  O   LIG    1       14.046 142.328  26.636  0.00  0.00    -0.345 OA
BRANCH  12  13
ATOM     13  C   LIG    1       13.528 141.084  27.080  0.00  0.00    +0.190 C 
BRANCH  13  14
ATOM     14  C   LIG    1       12.789 140.440  25.952  0.00  0.00    +0.001 C 
ATOM     15  C   LIG    1       12.469 141.083  24.818  0.00  0.00    +0.006 C 
BRANCH  15  16
ATOM     16  C   LIG    1       11.755 140.486  23.676  0.00  0.00    -0.025 A 
ATOM     17  C   LIG    1       10.804 141.236  23.002  0.00  0.00    +0.008 A 
ATOM     18  C   LIG    1       10.129 140.670  21.921  0.00  0.00    +0.001 A 
ATOM     19  C   LIG    1       10.412 139.362  21.528  0.00  0.00    +0.000 A 
ATOM     20  C   LIG    1       11.371 138.619  22.216  0.00  0.00    +0.001 A 
ATOM     21  C   LIG    1       12.047 139.185  23.298  0.00  0.00    +0.008 A 
ENDBRANCH  15  16
ENDBRANCH  13  14
ENDBRANCH  12  13
ENDBRANCH   2  12
BRANCH  22  23
ATOM     23  C   LIG    1       11.856 144.550  30.165  0.00  0.00    +0.197 C 
BRANCH  23  24
ATOM     24  O   LIG    1       10.960 145.129  29.234  0.00  0.00    -0.346 OA
BRANCH  24  25
ATOM     25  C   LIG    1       10.207 146.189  29.815  0.00  0.00    +0.281 C 
ATOM     26  C   LIG    1        9.779 147.184  28.726  0.00  0.00    +0.201 C 
ATOM     27  C   LIG    1        8.647 146.632  27.853  0.00  0.00    +0.178 C 
ATOM     28  C   LIG    1        7.527 146.076  28.733  0.00  0.00    +0.171 C 
ATOM     29  C   LIG    1        8.084 145.086  29.749  0.00  0.00    +0.197 C 
ATOM     36  O   LIG    1        9.083 145.704  30.557  0.00  0.00    -0.346 OA
BRANCH  28  30
ATOM     30  O   LIG    1        6.541 145.452  27.923  0.00  0.00    -0.387 OA
ATOM     31  H   LIG    1        5.780 146.055  27.870  0.00  0.00    +0.210 HD
ENDBRANCH  28  30
BRANCH  27  32
ATOM     32  O   LIG    1        9.152 145.591  27.018  0.00  0.00    -0.386 OA
ATOM     33  H   LIG    1        8.455 145.365  26.378  0.00  0.00    +0.210 HD
ENDBRANCH  27  32
BRANCH  26  34
ATOM     34  O   LIG    1        9.341 148.379  29.368  0.00  0.00    -0.384 OA
ATOM     35  H   LIG    1        8.835 148.905  28.727  0.00  0.00    +0.210 HD
ENDBRANCH  26  34
ENDBRANCH  24  25
ENDBRANCH  23  24
ENDBRANCH  22  23
TORSDOF 13
ENDMDL
MODEL 4
REMARK VINA RESULT:      -7.5      1.041      2.097
REMARK  Name = 9823887
REMARK                            x       y       z     vdW  Elec       q    Type
REMARK                         _______ _______ _______ _____ _____    ______ ____
ROOT
ATOM      1  O   LIG    1       20.915 158.343  27.147  0.00  0.00    -0.341 OA
ATOM      2  C   LIG    1       21.884 157.363  27.510  0.00  0.00    +0.282 C 
ATOM      3  C   LIG    1       21.733 156.114  26.641  0.00  0.00    +0.201 C 
ATOM      4  C   LIG    1       21.772 156.463  25.154  0.00  0.00    +0.179 C 
ATOM      5  C   LIG    1       20.836 157.626  24.833  0.00  0.00    +0.177 C 
ATOM     22  C   LIG    1       21.065 158.791  25.800  0.00  0.00    +0.178 C 
ENDROOT
BRANCH   5   6
ATOM      6  O   LIG    1       21.070 158.068  23.498  0.00  0.00    -0.386 OA
ATOM      7  H   LIG    1       20.214 158.098  23.038  0.00  0.00    +0.210 HD
ENDBRANCH   5   6
BRANCH   4   8
ATOM      8  O   LIG    1       21.350 155.332  24.389  0.00  0.00    -0.386 OA
ATOM      9  H   LIG    1       22.144 154.813  24.174  0.00  0.00    +0.210 HD
ENDBRANCH   4   8
BRANCH   3  10
ATOM     10  O   LIG    1       22.806 155.224  26.948  0.00  0.00    -0.384 OA
ATOM     11  H   LIG    1       22.556 154.335  26.645  0.00  0.00    +0.210 HD
ENDBRANCH   3  10
BRANCH   2  12
ATOM     12  O   LIG    1       21.695 156.978  28.871  0.00  0.00    -0.345 OA
BRANCH  12  13
ATOM     13  C   LIG    1       22.046 158.028  29.758  0.00  0.00    +0.190 C 
BRANCH  13  14
ATOM     14  C   LIG    1       22.650 157.436  30.990  0.00  0.00    +0.001 C 
ATOM     15  C   LIG    1       23.922 157.013  31.057  0.00  0.00    +0.006 C 
BRANCH  15  16
ATOM     16  C   LIG    1       24.564 156.438  32.252  0.00  0.00    -0.025 A 
ATOM     17  C   LIG    1       25.947 156.389  32.323  0.00  0.00    +0.008 A 
ATOM     18  C   LIG    1       26.554 155.844  33.454  0.00  0.00    +0.001 A 
ATOM     19  C   LIG    1       25.771 155.354  34.499  0.00  0.00    +0.000 A 
ATOM     20  C   LIG    1       24.380 155.410  34.414  0.00  0.00    +0.001 A 
ATOM     21  C   LIG    1       23.773 155.955  33.282  0.00  0.00    +0.008 A 
ENDBRANCH  15  16
ENDBRANCH  13  14
ENDBRANCH  12  13
ENDBRANCH   2  12
BRANCH  22  23
ATOM     23  C   LIG    1       20.063 159.919  25.574  0.00  0.00    +0.197 C 
BRANCH  23  24
ATOM     24  O   LIG    1       20.735 161.156  25.727  0.00  0.00    -0.346 OA
BRANCH  24  25
ATOM     25  C   LIG    1       22.147 160.988  25.775  0.00  0.00    +0.281 C 
ATOM     26  C   LIG    1       22.815 161.865  24.704  0.00  0.00    +0.201 C 
ATOM     27  C   LIG    1       22.809 163.348  25.089  0.00  0.00    +0.178 C 
ATOM     28  C   LIG    1       23.324 163.523  26.519  0.00  0.00    +0.171 C 
ATOM     29  C   LIG    1       22.563 162.617  27.478  0.00  0.00    +0.197 C 
ATOM     36  O   LIG    1       22.676 161.254  27.079  0.00  0.00    -0.346 OA
BRANCH  28  30
ATOM     30  O   LIG    1       23.197 164.882  26.914  0.00  0.00    -0.387 OA
ATOM     31  H   LIG    1       23.961 165.097  27.477  0.00  0.00    +0.210 HD
ENDBRANCH  28  30
BRANCH  27  32
ATOM     32  O   LIG    1       21.481 163.860  25.001  0.00  0.00    -0.386 OA
ATOM     33  H   LIG    1       20.903 163.264  25.508  0.00  0.00    +0.210 HD
ENDBRANCH  27  32
BRANCH  26  34
ATOM     34  O   LIG    1       24.161 161.422  24.548  0.00  0.00    -0.384 OA
ATOM     35  H   LIG    1       24.230 160.937  23.710  0.00  0.00    +0.210 HD
ENDBRANCH  26  34
ENDBRANCH  24  25
ENDBRANCH  23  24
ENDBRANCH  22  23
TORSDOF 13
ENDMDL
MODEL 5
REMARK VINA RESULT:      -7.4     17.985     21.940
REMARK  Name = 9823887
REMARK                            x       y       z     vdW  Elec       q    Type
REMARK                         _______ _______ _______ _____ _____    ______ ____
ROOT
ATOM      1  O   LIG    1       11.437 139.973  26.982  0.00  0.00    -0.341 OA
ATOM      2  C   LIG    1       11.761 139.168  25.850  0.00  0.00    +0.282 C 
ATOM      3  C   LIG    1       12.419 140.017  24.761  0.00  0.00    +0.201 C 
ATOM      4  C   LIG    1       13.622 140.785  25.305  0.00  0.00    +0.179 C 
ATOM      5  C   LIG    1       13.277 141.506  26.607  0.00  0.00    +0.177 C 
ATOM     22  C   LIG    1       12.592 140.553  27.590  0.00  0.00    +0.178 C 
ENDROOT
BRANCH   5   6
ATOM      6  O   LIG    1       14.471 142.014  27.197  0.00  0.00    -0.386 OA
ATOM      7  H   LIG    1       15.054 141.259  27.390  0.00  0.00    +0.210 HD
ENDBRANCH   5   6
BRANCH   4   8
ATOM      8  O   LIG    1       14.030 141.768  24.351  0.00  0.00    -0.386 OA
ATOM      9  H   LIG    1       13.956 141.365  23.469  0.00  0.00    +0.210 HD
ENDBRANCH   4   8
BRANCH   3  10
ATOM     10  O   LIG    1       12.845 139.146  23.713  0.00  0.00    -0.384 OA
ATOM     11  H   LIG    1       13.672 138.719  23.994  0.00  0.00    +0.210 HD
ENDBRANCH   3  10
BRANCH   2  12
ATOM     12  O   LIG    1       10.572 138.599  25.307  0.00  0.00    -0.345 OA
BRANCH  12  13
ATOM     13  C   LIG    1        9.540 139.566  25.194  0.00  0.00    +0.190 C 
BRANCH  13  14
ATOM     14  C   LIG    1        9.005 139.539  23.799  0.00  0.00    +0.001 C 
ATOM     15  C   LIG    1        9.235 140.511  22.902  0.00  0.00    +0.006 C 
BRANCH  15  16
ATOM     16  C   LIG    1        8.741 140.520  21.514  0.00  0.00    -0.025 A 
ATOM     17  C   LIG    1        7.581 139.830  21.201  0.00  0.00    +0.008 A 
ATOM     18  C   LIG    1        7.114 139.839  19.887  0.00  0.00    +0.001 A 
ATOM     19  C   LIG    1        7.813 140.536  18.903  0.00  0.00    +0.000 A 
ATOM     20  C   LIG    1        8.980 141.226  19.232  0.00  0.00    +0.001 A 
ATOM     21  C   LIG    1        9.447 141.217  20.546  0.00  0.00    +0.008 A 
ENDBRANCH  15  16
ENDBRANCH  13  14
ENDBRANCH  12  13
ENDBRANCH   2  12
BRANCH  22  23
ATOM     23  C   LIG    1       12.133 141.278  28.852  0.00  0.00    +0.197 C 
BRANCH  23  24
ATOM     24  O   LIG    1       12.098 142.668  28.586  0.00  0.00    -0.346 OA
BRANCH  24  25
ATOM     25  C   LIG    1       12.087 143.435  29.785  0.00  0.00    +0.281 C 
ATOM     26  C   LIG    1       13.388 144.244  29.901  0.00  0.00    +0.201 C 
ATOM     27  C   LIG    1       13.414 145.436  28.939  0.00  0.00    +0.178 C 
ATOM     28  C   LIG    1       12.114 146.234  29.055  0.00  0.00    +0.171 C 
ATOM     29  C   LIG    1       10.906 145.318  28.897  0.00  0.00    +0.197 C 
ATOM     36  O   LIG    1       10.933 144.279  29.872  0.00  0.00    -0.346 OA
BRANCH  28  30
ATOM     30  O   LIG    1       12.089 147.261  28.073  0.00  0.00    -0.387 OA
ATOM     31  H   LIG    1       11.275 147.150  27.552  0.00  0.00    +0.210 HD
ENDBRANCH  28  30
BRANCH  27  32
ATOM     32  O   LIG    1       13.561 144.967  27.600  0.00  0.00    -0.386 OA
ATOM     33  H   LIG    1       14.218 145.534  27.161  0.00  0.00    +0.210 HD
ENDBRANCH  27  32
BRANCH  26  34
ATOM     34  O   LIG    1       13.496 144.716  31.242  0.00  0.00    -0.384 OA
ATOM     35  H   LIG    1       12.632 145.066  31.515  0.00  0.00    +0.210 HD
ENDBRANCH  26  34
ENDBRANCH  24  25
ENDBRANCH  23  24
ENDBRANCH  22  23
TORSDOF 13
ENDMDL
MODEL 6
REMARK VINA RESULT:      -7.2     16.672     19.795
REMARK  Name = 9823887
REMARK                            x       y       z     vdW  Elec       q    Type
REMARK                         _______ _______ _______ _____ _____    ______ ____
ROOT
ATOM      1  O   LIG    1       12.541 143.886  28.896  0.00  0.00    -0.341 OA
ATOM      2  C   LIG    1       13.098 142.655  28.440  0.00  0.00    +0.282 C 
ATOM      3  C   LIG    1       14.056 142.901  27.274  0.00  0.00    +0.201 C 
ATOM      4  C   LIG    1       15.121 143.935  27.637  0.00  0.00    +0.179 C 
ATOM      5  C   LIG    1       14.495 145.176  28.270  0.00  0.00    +0.177 C 
ATOM     22  C   LIG    1       13.531 144.786  29.394  0.00  0.00    +0.178 C 
ENDROOT
BRANCH   5   6
ATOM      6  O   LIG    1       15.525 146.007  28.800  0.00  0.00    -0.386 OA
ATOM      7  H   LIG    1       15.587 146.801  28.240  0.00  0.00    +0.210 HD
ENDBRANCH   5   6
BRANCH   4   8
ATOM      8  O   LIG    1       15.811 144.343  26.454  0.00  0.00    -0.386 OA
ATOM      9  H   LIG    1       15.323 143.982  25.694  0.00  0.00    +0.210 HD
ENDBRANCH   4   8
BRANCH   3  10
ATOM     10  O   LIG    1       14.688 141.663  26.947  0.00  0.00    -0.384 OA
ATOM     11  H   LIG    1       14.043 140.950  27.083  0.00  0.00    +0.210 HD
ENDBRANCH   3  10
BRANCH   2  12
ATOM     12  O   LIG    1       12.057 141.795  27.981  0.00  0.00    -0.345 OA
BRANCH  12  13
ATOM     13  C   LIG    1       11.944 140.640  28.798  0.00  0.00    +0.190 C 
BRANCH  13  14
ATOM     14  C   LIG    1       13.042 139.689  28.443  0.00  0.00    +0.001 C 
ATOM     15  C   LIG    1       12.909 138.718  27.526  0.00  0.00    +0.006 C 
BRANCH  15  16
ATOM     16  C   LIG    1       13.965 137.770  27.134  0.00  0.00    -0.025 A 
ATOM     17  C   LIG    1       14.769 137.205  28.112  0.00  0.00    +0.008 A 
ATOM     18  C   LIG    1       15.769 136.307  27.740  0.00  0.00    +0.001 A 
ATOM     19  C   LIG    1       15.954 135.986  26.396  0.00  0.00    +0.000 A 
ATOM     20  C   LIG    1       15.138 136.562  25.423  0.00  0.00    +0.001 A 
ATOM     21  C   LIG    1       14.137 137.460  25.795  0.00  0.00    +0.008 A 
ENDBRANCH  15  16
ENDBRANCH  13  14
ENDBRANCH  12  13
ENDBRANCH   2  12
BRANCH  22  23
ATOM     23  C   LIG    1       12.806 146.001  29.964  0.00  0.00    +0.197 C 
BRANCH  23  24
ATOM     24  O   LIG    1       11.475 145.627  30.274  0.00  0.00    -0.346 OA
BRANCH  24  25
ATOM     25  C   LIG    1       10.632 146.762  30.440  0.00  0.00    +0.281 C 
ATOM     26  C   LIG    1       10.471 147.493  29.098  0.00  0.00    +0.201 C 
ATOM     27  C   LIG    1        9.548 146.737  28.137  0.00  0.00    +0.178 C 
ATOM     28  C   LIG    1        8.252 146.345  28.850  0.00  0.00    +0.171 C 
ATOM     29  C   LIG    1        8.556 145.608  30.148  0.00  0.00    +0.197 C 
ATOM     36  O   LIG    1        9.364 146.411  31.005  0.00  0.00    -0.346 OA
BRANCH  28  30
ATOM     30  O   LIG    1        7.457 145.537  27.995  0.00  0.00    -0.387 OA
ATOM     31  H   LIG    1        7.149 144.774  28.514  0.00  0.00    +0.210 HD
ENDBRANCH  28  30
BRANCH  27  32
ATOM     32  O   LIG    1       10.204 145.559  27.671  0.00  0.00    -0.386 OA
ATOM     33  H   LIG    1       11.149 145.646  27.887  0.00  0.00    +0.210 HD
ENDBRANCH  27  32
BRANCH  26  34
ATOM     34  O   LIG    1        9.923 148.783  29.363  0.00  0.00    -0.384 OA
ATOM     35  H   LIG    1       10.549 149.454  29.042  0.00  0.00    +0.210 HD
ENDBRANCH  26  34
ENDBRANCH  24  25
ENDBRANCH  23  24
ENDBRANCH  22  23
TORSDOF 13
ENDMDL
MODEL 7
REMARK VINA RESULT:      -7.2     16.198     19.504
REMARK  Name = 9823887
REMARK                            x       y       z     vdW  Elec       q    Type
REMARK                         _______ _______ _______ _____ _____    ______ ____
ROOT
ATOM      1  O   LIG    1       12.515 143.864  28.809  0.00  0.00    -0.341 OA
ATOM      2  C   LIG    1       13.153 142.654  28.405  0.00  0.00    +0.282 C 
ATOM      3  C   LIG    1       14.156 142.927  27.284  0.00  0.00    +0.201 C 
ATOM      4  C   LIG    1       15.151 144.017  27.679  0.00  0.00    +0.179 C 
ATOM      5  C   LIG    1       14.435 145.237  28.257  0.00  0.00    +0.177 C 
ATOM     22  C   LIG    1       13.436 144.819  29.339  0.00  0.00    +0.178 C 
ENDROOT
BRANCH   5   6
ATOM      6  O   LIG    1       15.396 146.126  28.820  0.00  0.00    -0.386 OA
ATOM      7  H   LIG    1       16.250 145.661  28.856  0.00  0.00    +0.210 HD
ENDBRANCH   5   6
BRANCH   4   8
ATOM      8  O   LIG    1       15.879 144.438  26.524  0.00  0.00    -0.386 OA
ATOM      9  H   LIG    1       16.530 145.099  26.816  0.00  0.00    +0.210 HD
ENDBRANCH   4   8
BRANCH   3  10
ATOM     10  O   LIG    1       14.862 141.716  27.012  0.00  0.00    -0.384 OA
ATOM     11  H   LIG    1       14.378 140.985  27.430  0.00  0.00    +0.210 HD
ENDBRANCH   3  10
BRANCH   2  12
ATOM     12  O   LIG    1       12.179 141.737  27.912  0.00  0.00    -0.345 OA
BRANCH  12  13
ATOM     13  C   LIG    1       12.032 140.624  28.780  0.00  0.00    +0.190 C 
BRANCH  13  14
ATOM     14  C   LIG    1       12.573 139.408  28.099  0.00  0.00    +0.001 C 
ATOM     15  C   LIG    1       13.883 139.195  27.902  0.00  0.00    +0.006 C 
BRANCH  15  16
ATOM     16  C   LIG    1       14.462 138.007  27.251  0.00  0.00    -0.025 A 
ATOM     17  C   LIG    1       15.254 137.144  27.992  0.00  0.00    +0.008 A 
ATOM     18  C   LIG    1       15.801 136.020  27.375  0.00  0.00    +0.001 A 
ATOM     19  C   LIG    1       15.551 135.773  26.025  0.00  0.00    +0.000 A 
ATOM     20  C   LIG    1       14.753 136.651  25.292  0.00  0.00    +0.001 A 
ATOM     21  C   LIG    1       14.205 137.775  25.909  0.00  0.00    +0.008 A 
ENDBRANCH  15  16
ENDBRANCH  13  14
ENDBRANCH  12  13
ENDBRANCH   2  12
BRANCH  22  23
ATOM     23  C   LIG    1       12.625 146.007  29.848  0.00  0.00    +0.197 C 
BRANCH  23  24
ATOM     24  O   LIG    1       13.373 146.665  30.855  0.00  0.00    -0.346 OA
BRANCH  24  25
ATOM     25  C   LIG    1       12.532 147.218  31.862  0.00  0.00    +0.281 C 
ATOM     26  C   LIG    1       11.983 146.097  32.758  0.00  0.00    +0.201 C 
ATOM     27  C   LIG    1       13.049 145.548  33.713  0.00  0.00    +0.178 C 
ATOM     28  C   LIG    1       13.756 146.699  34.431  0.00  0.00    +0.171 C 
ATOM     29  C   LIG    1       14.271 147.723  33.427  0.00  0.00    +0.197 C 
ATOM     36  O   LIG    1       13.202 148.225  32.628  0.00  0.00    -0.346 OA
BRANCH  28  30
ATOM     30  O   LIG    1       14.826 146.194  35.216  0.00  0.00    -0.387 OA
ATOM     31  H   LIG    1       15.137 145.373  34.796  0.00  0.00    +0.210 HD
ENDBRANCH  28  30
BRANCH  27  32
ATOM     32  O   LIG    1       14.009 144.794  32.974  0.00  0.00    -0.386 OA
ATOM     33  H   LIG    1       14.563 145.425  32.484  0.00  0.00    +0.210 HD
ENDBRANCH  27  32
BRANCH  26  34
ATOM     34  O   LIG    1       10.900 146.630  33.517  0.00  0.00    -0.384 OA
ATOM     35  H   LIG    1       11.204 147.439  33.960  0.00  0.00    +0.210 HD
ENDBRANCH  26  34
ENDBRANCH  24  25
ENDBRANCH  23  24
ENDBRANCH  22  23
TORSDOF 13
ENDMDL
MODEL 8
REMARK VINA RESULT:      -7.1     15.960     19.889
REMARK  Name = 9823887
REMARK                            x       y       z     vdW  Elec       q    Type
REMARK                         _______ _______ _______ _____ _____    ______ ____
ROOT
ATOM      1  O   LIG    1       13.298 144.173  29.464  0.00  0.00    -0.341 OA
ATOM      2  C   LIG    1       13.609 145.520  29.113  0.00  0.00    +0.282 C 
ATOM      3  C   LIG    1       14.923 145.580  28.334  0.00  0.00    +0.201 C 
ATOM      4  C   LIG    1       14.898 144.645  27.126  0.00  0.00    +0.179 C 
ATOM      5  C   LIG    1       14.406 143.251  27.515  0.00  0.00    +0.177 C 
ATOM     22  C   LIG    1       13.107 143.339  28.320  0.00  0.00    +0.178 C 
ENDROOT
BRANCH   5   6
ATOM      6  O   LIG    1       14.179 142.485  26.335  0.00  0.00    -0.386 OA
ATOM      7  H   LIG    1       13.217 142.422  26.200  0.00  0.00    +0.210 HD
ENDBRANCH   5   6
BRANCH   4   8
ATOM      8  O   LIG    1       16.219 144.515  26.598  0.00  0.00    -0.386 OA
ATOM      9  H   LIG    1       16.669 143.819  27.106  0.00  0.00    +0.210 HD
ENDBRANCH   4   8
BRANCH   3  10
ATOM     10  O   LIG    1       15.118 146.923  27.891  0.00  0.00    -0.384 OA
ATOM     11  H   LIG    1       15.554 146.893  27.023  0.00  0.00    +0.210 HD
ENDBRANCH   3  10
BRANCH   2  12
ATOM     12  O   LIG    1       13.760 146.303  30.296  0.00  0.00    -0.345 OA
BRANCH  12  13
ATOM     13  C   LIG    1       12.625 146.191  31.139  0.00  0.00    +0.190 C 
BRANCH  13  14
ATOM     14  C   LIG    1       11.483 146.920  30.509  0.00  0.00    +0.001 C 
ATOM     15  C   LIG    1       11.280 148.239  30.654  0.00  0.00    +0.006 C 
BRANCH  15  16
ATOM     16  C   LIG    1       10.179 149.002  30.041  0.00  0.00    -0.025 A 
ATOM     17  C   LIG    1        8.998 148.351  29.721  0.00  0.00    +0.008 A 
ATOM     18  C   LIG    1        7.955 149.073  29.141  0.00  0.00    +0.001 A 
ATOM     19  C   LIG    1        8.107 150.436  28.887  0.00  0.00    +0.000 A 
ATOM     20  C   LIG    1        9.302 151.078  29.213  0.00  0.00    +0.001 A 
ATOM     21  C   LIG    1       10.345 150.355  29.794  0.00  0.00    +0.008 A 
ENDBRANCH  15  16
ENDBRANCH  13  14
ENDBRANCH  12  13
ENDBRANCH   2  12
BRANCH  22  23
ATOM     23  C   LIG    1       12.659 141.968  28.819  0.00  0.00    +0.197 C 
BRANCH  23  24
ATOM     24  O   LIG    1       12.070 141.266  27.740  0.00  0.00    -0.346 OA
BRANCH  24  25
ATOM     25  C   LIG    1       11.996 139.868  27.997  0.00  0.00    +0.281 C 
ATOM     26  C   LIG    1       10.849 139.247  27.185  0.00  0.00    +0.201 C 
ATOM     27  C   LIG    1       11.195 139.127  25.697  0.00  0.00    +0.178 C 
ATOM     28  C   LIG    1       12.569 138.476  25.527  0.00  0.00    +0.171 C 
ATOM     29  C   LIG    1       13.614 139.202  26.363  0.00  0.00    +0.197 C 
ATOM     36  O   LIG    1       13.241 139.209  27.739  0.00  0.00    -0.346 OA
BRANCH  28  30
ATOM     30  O   LIG    1       12.939 138.483  24.155  0.00  0.00    -0.387 OA
ATOM     31  H   LIG    1       13.040 139.411  23.882  0.00  0.00    +0.210 HD
ENDBRANCH  28  30
BRANCH  27  32
ATOM     32  O   LIG    1       11.211 140.424  25.104  0.00  0.00    -0.386 OA
ATOM     33  H   LIG    1       11.936 140.440  24.455  0.00  0.00    +0.210 HD
ENDBRANCH  27  32
BRANCH  26  34
ATOM     34  O   LIG    1       10.586 137.950  27.715  0.00  0.00    -0.384 OA
ATOM     35  H   LIG    1        9.627 137.858  27.840  0.00  0.00    +0.210 HD
ENDBRANCH  26  34
ENDBRANCH  24  25
ENDBRANCH  23  24
ENDBRANCH  22  23
TORSDOF 13
ENDMDL
MODEL 9
REMARK VINA RESULT:      -6.9     12.621     19.010
REMARK  Name = 9823887
REMARK                            x       y       z     vdW  Elec       q    Type
REMARK                         _______ _______ _______ _____ _____    ______ ____
ROOT
ATOM      1  O   LIG    1       14.827 164.354  14.042  0.00  0.00    -0.341 OA
ATOM      2  C   LIG    1       14.471 164.783  12.730  0.00  0.00    +0.282 C 
ATOM      3  C   LIG    1       14.029 163.592  11.879  0.00  0.00    +0.201 C 
ATOM      4  C   LIG    1       12.917 162.799  12.565  0.00  0.00    +0.179 C 
ATOM      5  C   LIG    1       13.269 162.497  14.021  0.00  0.00    +0.177 C 
ATOM     22  C   LIG    1       13.730 163.765  14.744  0.00  0.00    +0.178 C 
ENDROOT
BRANCH   5   6
ATOM      6  O   LIG    1       12.124 161.966  14.684  0.00  0.00    -0.386 OA
ATOM      7  H   LIG    1       12.205 160.997  14.691  0.00  0.00    +0.210 HD
ENDBRANCH   5   6
BRANCH   4   8
ATOM      8  O   LIG    1       12.731 161.555  11.888  0.00  0.00    -0.386 OA
ATOM      9  H   LIG    1       12.840 161.723  10.937  0.00  0.00    +0.210 HD
ENDBRANCH   4   8
BRANCH   3  10
ATOM     10  O   LIG    1       13.555 164.088  10.628  0.00  0.00    -0.384 OA
ATOM     11  H   LIG    1       13.927 163.531   9.923  0.00  0.00    +0.210 HD
ENDBRANCH   3  10
BRANCH   2  12
ATOM     12  O   LIG    1       15.598 165.383  12.096  0.00  0.00    -0.345 OA
BRANCH  12  13
ATOM     13  C   LIG    1       15.453 166.791  12.007  0.00  0.00    +0.190 C 
BRANCH  13  14
ATOM     14  C   LIG    1       15.429 167.183  10.565  0.00  0.00    +0.001 C 
ATOM     15  C   LIG    1       16.356 166.787   9.678  0.00  0.00    +0.006 C 
BRANCH  15  16
ATOM     16  C   LIG    1       16.365 167.136   8.247  0.00  0.00    -0.025 A 
ATOM     17  C   LIG    1       16.900 168.350   7.847  0.00  0.00    +0.008 A 
ATOM     18  C   LIG    1       16.909 168.679   6.492  0.00  0.00    +0.001 A 
ATOM     19  C   LIG    1       16.383 167.791   5.555  0.00  0.00    +0.000 A 
ATOM     20  C   LIG    1       15.848 166.573   5.972  0.00  0.00    +0.001 A 
ATOM     21  C   LIG    1       15.839 166.243   7.327  0.00  0.00    +0.008 A 
ENDBRANCH  15  16
ENDBRANCH  13  14
ENDBRANCH  12  13
ENDBRANCH   2  12
BRANCH  22  23
ATOM     23  C   LIG    1       14.199 163.468  16.165  0.00  0.00    +0.197 C 
BRANCH  23  24
ATOM     24  O   LIG    1       15.613 163.388  16.166  0.00  0.00    -0.346 OA
BRANCH  24  25
ATOM     25  C   LIG    1       16.205 164.521  16.792  0.00  0.00    +0.281 C 
ATOM     26  C   LIG    1       15.848 164.539  18.286  0.00  0.00    +0.201 C 
ATOM     27  C   LIG    1       16.627 163.484  19.078  0.00  0.00    +0.178 C 
ATOM     28  C   LIG    1       18.117 163.567  18.741  0.00  0.00    +0.171 C 
ATOM     29  C   LIG    1       18.330 163.513  17.233  0.00  0.00    +0.197 C 
ATOM     36  O   LIG    1       17.621 164.568  16.588  0.00  0.00    -0.346 OA
BRANCH  28  30
ATOM     30  O   LIG    1       18.816 162.506  19.378  0.00  0.00    -0.387 OA
ATOM     31  H   LIG    1       18.250 161.716  19.339  0.00  0.00    +0.210 HD
ENDBRANCH  28  30
BRANCH  27  32
ATOM     32  O   LIG    1       16.141 162.184  18.747  0.00  0.00    -0.386 OA
ATOM     33  H   LIG    1       16.578 161.909  17.923  0.00  0.00    +0.210 HD
ENDBRANCH  27  32
BRANCH  26  34
ATOM     34  O   LIG    1       16.155 165.834  18.797  0.00  0.00    -0.384 OA
ATOM     35  H   LIG    1       16.000 165.831  19.756  0.00  0.00    +0.210 HD
ENDBRANCH  26  34
ENDBRANCH  24  25
ENDBRANCH  23  24
ENDBRANCH  22  23
TORSDOF 13
ENDMDL
