MODEL 1
REMARK VINA RESULT:      -7.2      0.000      0.000
REMARK  Name = 9823887
REMARK                            x       y       z     vdW  Elec       q    Type
REMARK                         _______ _______ _______ _____ _____    ______ ____
ROOT
ATOM      1  O   LIG    1       13.005 143.524  28.450  0.00  0.00    -0.341 OA
ATOM      2  C   LIG    1       14.233 143.193  27.804  0.00  0.00    +0.282 C 
ATOM      3  C   LIG    1       14.904 144.452  27.254  0.00  0.00    +0.201 C 
ATOM      4  C   LIG    1       15.073 145.513  28.340  0.00  0.00    +0.179 C 
ATOM      5  C   LIG    1       13.773 145.725  29.115  0.00  0.00    +0.177 C 
ATOM     22  C   LIG    1       13.191 144.385  29.574  0.00  0.00    +0.178 C 
ENDROOT
BRANCH   5   6
ATOM      6  O   LIG    1       14.030 146.542  30.254  0.00  0.00    -0.386 OA
ATOM      7  H   LIG    1       14.577 147.294  29.967  0.00  0.00    +0.210 HD
ENDBRANCH   5   6
BRANCH   4   8
ATOM      8  O   LIG    1       15.434 146.757  27.737  0.00  0.00    -0.386 OA
ATOM      9  H   LIG    1       14.696 147.374  27.877  0.00  0.00    +0.210 HD
ENDBRANCH   4   8
BRANCH   3  10
ATOM     10  O   LIG    1       16.186 144.088  26.742  0.00  0.00    -0.384 OA
ATOM     11  H   LIG    1       16.586 143.452  27.358  0.00  0.00    +0.210 HD
ENDBRANCH   3  10
BRANCH   2  12
ATOM     12  O   LIG    1       13.981 142.314  26.711  0.00  0.00    -0.345 OA
BRANCH  12  13
ATOM     13  C   LIG    1       13.447 141.076  27.154  0.00  0.00    +0.190 C 
BRANCH  13  14
ATOM     14  C   LIG    1       12.661 140.463  26.040  0.00  0.00    +0.001 C 
ATOM     15  C   LIG    1       12.513 141.041  24.838  0.00  0.00    +0.006 C 
BRANCH  15  16
ATOM     16  C   LIG    1       11.761 140.469  23.708  0.00  0.00    -0.025 A 
ATOM     17  C   LIG    1       10.804 141.240  23.068  0.00  0.00    +0.008 A 
ATOM     18  C   LIG    1       10.093 140.698  21.998  0.00  0.00    +0.001 A 
ATOM     19  C   LIG    1       10.347 139.391  21.582  0.00  0.00    +0.000 A 
ATOM     20  C   LIG    1       11.313 138.626  22.235  0.00  0.00    +0.001 A 
ATOM     21  C   LIG    1       12.025 139.169  23.306  0.00  0.00    +0.008 A 
ENDBRANCH  15  16
ENDBRANCH  13  14
ENDBRANCH  12  13
ENDBRANCH   2  12
BRANCH  22  23
ATOM     23  C   LIG    1       11.834 144.561  30.249  0.00  0.00    +0.197 C 
BRANCH  23  24
ATOM     24  O   LIG    1       10.955 145.195  29.337  0.00  0.00    -0.346 OA
BRANCH  24  25
ATOM     25  C   LIG    1       10.258 146.278  29.943  0.00  0.00    +0.281 C 
ATOM     26  C   LIG    1        9.930 147.345  28.887  0.00  0.00    +0.201 C 
ATOM     27  C   LIG    1        8.790 146.908  27.960  0.00  0.00    +0.178 C 
ATOM     28  C   LIG    1        7.610 146.393  28.785  0.00  0.00    +0.171 C 
ATOM     29  C   LIG    1        8.068 145.326  29.772  0.00  0.00    +0.197 C 
ATOM     36  O   LIG    1        9.082 145.841  30.633  0.00  0.00    -0.346 OA
BRANCH  28  30
ATOM     30  O   LIG    1        6.609 145.872  27.922  0.00  0.00    -0.387 OA
ATOM     31  H   LIG    1        5.744 146.127  28.287  0.00  0.00    +0.210 HD
ENDBRANCH  28  30
BRANCH  27  32
ATOM     32  O   LIG    1        9.249 145.870  27.095  0.00  0.00    -0.386 OA
ATOM     33  H   LIG    1        8.465 145.429  26.725  0.00  0.00    +0.210 HD
ENDBRANCH  27  32
BRANCH  26  34
ATOM     34  O   LIG    1        9.553 148.539  29.568  0.00  0.00    -0.384 OA
ATOM     35  H   LIG    1       10.129 148.645  30.344  0.00  0.00    +0.210 HD
ENDBRANCH  26  34
ENDBRANCH  24  25
ENDBRANCH  23  24
ENDBRANCH  22  23
TORSDOF 13
ENDMDL
MODEL 2
REMARK VINA RESULT:      -7.1     11.825     15.520
REMARK  Name = 9823887
REMARK                            x       y       z     vdW  Elec       q    Type
REMARK                         _______ _______ _______ _____ _____    ______ ____
ROOT
ATOM      1  O   LIG    1       17.871 153.803  30.461  0.00  0.00    -0.341 OA
ATOM      2  C   LIG    1       18.450 152.857  31.356  0.00  0.00    +0.282 C 
ATOM      3  C   LIG    1       17.837 152.995  32.750  0.00  0.00    +0.201 C 
ATOM      4  C   LIG    1       16.313 152.905  32.699  0.00  0.00    +0.179 C 
ATOM      5  C   LIG    1       15.740 153.818  31.616  0.00  0.00    +0.177 C 
ATOM     22  C   LIG    1       16.467 153.605  30.286  0.00  0.00    +0.178 C 
ENDROOT
BRANCH   5   6
ATOM      6  O   LIG    1       14.353 153.536  31.445  0.00  0.00    -0.386 OA
ATOM      7  H   LIG    1       14.139 153.646  30.502  0.00  0.00    +0.210 HD
ENDBRANCH   5   6
BRANCH   4   8
ATOM      8  O   LIG    1       15.769 153.316  33.955  0.00  0.00    -0.386 OA
ATOM      9  H   LIG    1       15.904 152.586  34.583  0.00  0.00    +0.210 HD
ENDBRANCH   4   8
BRANCH   3  10
ATOM     10  O   LIG    1       18.347 151.943  33.569  0.00  0.00    -0.384 OA
ATOM     11  H   LIG    1       19.288 152.119  33.735  0.00  0.00    +0.210 HD
ENDBRANCH   3  10
BRANCH   2  12
ATOM     12  O   LIG    1       19.853 153.093  31.466  0.00  0.00    -0.345 OA
BRANCH  12  13
ATOM     13  C   LIG    1       20.120 154.373  32.019  0.00  0.00    +0.190 C 
BRANCH  13  14
ATOM     14  C   LIG    1       21.586 154.485  32.286  0.00  0.00    +0.001 C 
ATOM     15  C   LIG    1       22.162 155.590  32.784  0.00  0.00    +0.006 C 
BRANCH  15  16
ATOM     16  C   LIG    1       23.598 155.742  33.077  0.00  0.00    -0.025 A 
ATOM     17  C   LIG    1       24.456 156.159  32.072  0.00  0.00    +0.008 A 
ATOM     18  C   LIG    1       25.815 156.302  32.351  0.00  0.00    +0.001 A 
ATOM     19  C   LIG    1       26.298 156.025  33.629  0.00  0.00    +0.000 A 
ATOM     20  C   LIG    1       25.423 155.605  34.630  0.00  0.00    +0.001 A 
ATOM     21  C   LIG    1       24.063 155.462  34.352  0.00  0.00    +0.008 A 
ENDBRANCH  15  16
ENDBRANCH  13  14
ENDBRANCH  12  13
ENDBRANCH   2  12
BRANCH  22  23
ATOM     23  C   LIG    1       15.993 154.587  29.218  0.00  0.00    +0.197 C 
BRANCH  23  24
ATOM     24  O   LIG    1       16.460 154.142  27.958  0.00  0.00    -0.346 OA
BRANCH  24  25
ATOM     25  C   LIG    1       16.371 155.165  26.971  0.00  0.00    +0.281 C 
ATOM     26  C   LIG    1       17.250 156.358  27.373  0.00  0.00    +0.201 C 
ATOM     27  C   LIG    1       18.742 156.067  27.178  0.00  0.00    +0.178 C 
ATOM     28  C   LIG    1       18.988 155.490  25.783  0.00  0.00    +0.171 C 
ATOM     29  C   LIG    1       18.071 154.302  25.524  0.00  0.00    +0.197 C 
ATOM     36  O   LIG    1       16.704 154.681  25.665  0.00  0.00    -0.346 OA
BRANCH  28  30
ATOM     30  O   LIG    1       20.349 155.104  25.654  0.00  0.00    -0.387 OA
ATOM     31  H   LIG    1       20.787 155.759  25.083  0.00  0.00    +0.210 HD
ENDBRANCH  28  30
BRANCH  27  32
ATOM     32  O   LIG    1       19.177 155.128  28.160  0.00  0.00    -0.386 OA
ATOM     33  H   LIG    1       18.770 154.271  27.946  0.00  0.00    +0.210 HD
ENDBRANCH  27  32
BRANCH  26  34
ATOM     34  O   LIG    1       16.878 157.473  26.566  0.00  0.00    -0.384 OA
ATOM     35  H   LIG    1       16.059 157.853  26.925  0.00  0.00    +0.210 HD
ENDBRANCH  26  34
ENDBRANCH  24  25
ENDBRANCH  23  24
ENDBRANCH  22  23
TORSDOF 13
ENDMDL
MODEL 3
REMARK VINA RESULT:      -7.0     15.671     19.598
REMARK  Name = 9823887
REMARK                            x       y       z     vdW  Elec       q    Type
REMARK                         _______ _______ _______ _____ _____    ______ ____
ROOT
ATOM      1  O   LIG    1       20.702 157.823  27.834  0.00  0.00    -0.341 OA
ATOM      2  C   LIG    1       21.315 156.636  28.331  0.00  0.00    +0.282 C 
ATOM      3  C   LIG    1       21.337 155.553  27.252  0.00  0.00    +0.201 C 
ATOM      4  C   LIG    1       21.987 156.061  25.966  0.00  0.00    +0.179 C 
ATOM      5  C   LIG    1       21.412 157.416  25.553  0.00  0.00    +0.177 C 
ATOM     22  C   LIG    1       21.414 158.390  26.734  0.00  0.00    +0.178 C 
ENDROOT
BRANCH   5   6
ATOM      6  O   LIG    1       22.196 157.958  24.493  0.00  0.00    -0.386 OA
ATOM      7  H   LIG    1       23.134 157.835  24.721  0.00  0.00    +0.210 HD
ENDBRANCH   5   6
BRANCH   4   8
ATOM      8  O   LIG    1       21.737 155.135  24.907  0.00  0.00    -0.386 OA
ATOM      9  H   LIG    1       21.030 154.537  25.205  0.00  0.00    +0.210 HD
ENDBRANCH   4   8
BRANCH   3  10
ATOM     10  O   LIG    1       22.079 154.440  27.750  0.00  0.00    -0.384 OA
ATOM     11  H   LIG    1       22.585 154.738  28.524  0.00  0.00    +0.210 HD
ENDBRANCH   3  10
BRANCH   2  12
ATOM     12  O   LIG    1       20.571 156.137  29.441  0.00  0.00    -0.345 OA
BRANCH  12  13
ATOM     13  C   LIG    1       20.572 157.058  30.520  0.00  0.00    +0.190 C 
BRANCH  13  14
ATOM     14  C   LIG    1       21.926 157.059  31.153  0.00  0.00    +0.001 C 
ATOM     15  C   LIG    1       22.401 156.034  31.878  0.00  0.00    +0.006 C 
BRANCH  15  16
ATOM     16  C   LIG    1       23.732 155.984  32.507  0.00  0.00    -0.025 A 
ATOM     17  C   LIG    1       24.846 156.353  31.770  0.00  0.00    +0.008 A 
ATOM     18  C   LIG    1       26.105 156.306  32.367  0.00  0.00    +0.001 A 
ATOM     19  C   LIG    1       26.235 155.888  33.691  0.00  0.00    +0.000 A 
ATOM     20  C   LIG    1       25.105 155.519  34.420  0.00  0.00    +0.001 A 
ATOM     21  C   LIG    1       23.845 155.567  33.824  0.00  0.00    +0.008 A 
ENDBRANCH  15  16
ENDBRANCH  13  14
ENDBRANCH  12  13
ENDBRANCH   2  12
BRANCH  22  23
ATOM     23  C   LIG    1       20.739 159.711  26.378  0.00  0.00    +0.197 C 
BRANCH  23  24
ATOM     24  O   LIG    1       21.655 160.502  25.643  0.00  0.00    -0.346 OA
BRANCH  24  25
ATOM     25  C   LIG    1       21.687 161.845  26.112  0.00  0.00    +0.281 C 
ATOM     26  C   LIG    1       23.121 162.224  26.516  0.00  0.00    +0.201 C 
ATOM     27  C   LIG    1       24.023 162.449  25.298  0.00  0.00    +0.178 C 
ATOM     28  C   LIG    1       23.336 163.383  24.300  0.00  0.00    +0.171 C 
ATOM     29  C   LIG    1       21.937 162.880  23.968  0.00  0.00    +0.197 C 
ATOM     36  O   LIG    1       21.151 162.762  25.152  0.00  0.00    -0.346 OA
BRANCH  28  30
ATOM     30  O   LIG    1       24.119 163.487  23.119  0.00  0.00    -0.387 OA
ATOM     31  H   LIG    1       24.262 164.433  22.944  0.00  0.00    +0.210 HD
ENDBRANCH  28  30
BRANCH  27  32
ATOM     32  O   LIG    1       24.291 161.199  24.665  0.00  0.00    -0.386 OA
ATOM     33  H   LIG    1       24.776 161.385  23.843  0.00  0.00    +0.210 HD
ENDBRANCH  27  32
BRANCH  26  34
ATOM     34  O   LIG    1       23.060 163.421  27.287  0.00  0.00    -0.384 OA
ATOM     35  H   LIG    1       23.833 163.449  27.875  0.00  0.00    +0.210 HD
ENDBRANCH  26  34
ENDBRANCH  24  25
ENDBRANCH  23  24
ENDBRANCH  22  23
TORSDOF 13
ENDMDL
MODEL 4
REMARK VINA RESULT:      -7.0     11.913     16.607
REMARK  Name = 9823887
REMARK                            x       y       z     vdW  Elec       q    Type
REMARK                         _______ _______ _______ _____ _____    ______ ____
ROOT
ATOM      1  O   LIG    1       19.104 153.795  30.767  0.00  0.00    -0.341 OA
ATOM      2  C   LIG    1       18.806 153.043  31.941  0.00  0.00    +0.282 C 
ATOM      3  C   LIG    1       17.390 153.349  32.428  0.00  0.00    +0.201 C 
ATOM      4  C   LIG    1       16.362 153.144  31.317  0.00  0.00    +0.179 C 
ATOM      5  C   LIG    1       16.797 153.835  30.025  0.00  0.00    +0.177 C 
ATOM     22  C   LIG    1       18.242 153.472  29.675  0.00  0.00    +0.178 C 
ENDROOT
BRANCH   5   6
ATOM      6  O   LIG    1       15.939 153.431  28.961  0.00  0.00    -0.386 OA
ATOM      7  H   LIG    1       15.998 154.101  28.258  0.00  0.00    +0.210 HD
ENDBRANCH   5   6
BRANCH   4   8
ATOM      8  O   LIG    1       15.110 153.703  31.717  0.00  0.00    -0.386 OA
ATOM      9  H   LIG    1       15.301 154.467  32.287  0.00  0.00    +0.210 HD
ENDBRANCH   4   8
BRANCH   3  10
ATOM     10  O   LIG    1       17.093 152.475  33.517  0.00  0.00    -0.384 OA
ATOM     11  H   LIG    1       17.735 151.746  33.502  0.00  0.00    +0.210 HD
ENDBRANCH   3  10
BRANCH   2  12
ATOM     12  O   LIG    1       19.716 153.393  32.982  0.00  0.00    -0.345 OA
BRANCH  12  13
ATOM     13  C   LIG    1       20.175 154.728  32.840  0.00  0.00    +0.190 C 
BRANCH  13  14
ATOM     14  C   LIG    1       21.669 154.721  32.791  0.00  0.00    +0.001 C 
ATOM     15  C   LIG    1       22.421 155.794  33.082  0.00  0.00    +0.006 C 
BRANCH  15  16
ATOM     16  C   LIG    1       23.893 155.830  33.062  0.00  0.00    -0.025 A 
ATOM     17  C   LIG    1       24.602 155.205  34.076  0.00  0.00    +0.008 A 
ATOM     18  C   LIG    1       25.996 155.240  34.055  0.00  0.00    +0.001 A 
ATOM     19  C   LIG    1       26.663 155.899  33.023  0.00  0.00    +0.000 A 
ATOM     20  C   LIG    1       25.937 156.523  32.010  0.00  0.00    +0.001 A 
ATOM     21  C   LIG    1       24.542 156.489  32.030  0.00  0.00    +0.008 A 
ENDBRANCH  15  16
ENDBRANCH  13  14
ENDBRANCH  12  13
ENDBRANCH   2  12
BRANCH  22  23
ATOM     23  C   LIG    1       18.738 154.241  28.454  0.00  0.00    +0.197 C 
BRANCH  23  24
ATOM     24  O   LIG    1       19.971 154.857  28.779  0.00  0.00    -0.346 OA
BRANCH  24  25
ATOM     25  C   LIG    1       20.957 154.624  27.779  0.00  0.00    +0.281 C 
ATOM     26  C   LIG    1       20.962 155.782  26.769  0.00  0.00    +0.201 C 
ATOM     27  C   LIG    1       21.603 157.048  27.346  0.00  0.00    +0.178 C 
ATOM     28  C   LIG    1       22.950 156.710  27.988  0.00  0.00    +0.171 C 
ATOM     29  C   LIG    1       22.799 155.567  28.984  0.00  0.00    +0.197 C 
ATOM     36  O   LIG    1       22.256 154.414  28.345  0.00  0.00    -0.346 OA
BRANCH  28  30
ATOM     30  O   LIG    1       23.479 157.861  28.632  0.00  0.00    -0.387 OA
ATOM     31  H   LIG    1       23.900 157.568  29.459  0.00  0.00    +0.210 HD
ENDBRANCH  28  30
BRANCH  27  32
ATOM     32  O   LIG    1       20.740 157.614  28.331  0.00  0.00    -0.386 OA
ATOM     33  H   LIG    1       21.262 157.735  29.143  0.00  0.00    +0.210 HD
ENDBRANCH  27  32
BRANCH  26  34
ATOM     34  O   LIG    1       21.695 155.362  25.621  0.00  0.00    -0.384 OA
ATOM     35  H   LIG    1       22.391 156.017  25.444  0.00  0.00    +0.210 HD
ENDBRANCH  26  34
ENDBRANCH  24  25
ENDBRANCH  23  24
ENDBRANCH  22  23
TORSDOF 13
ENDMDL
MODEL 5
REMARK VINA RESULT:      -6.9     10.018     14.233
REMARK  Name = 9823887
REMARK                            x       y       z     vdW  Elec       q    Type
REMARK                         _______ _______ _______ _____ _____    ______ ____
ROOT
ATOM      1  O   LIG    1       16.998 153.735  29.362  0.00  0.00    -0.341 OA
ATOM      2  C   LIG    1       18.378 154.030  29.159  0.00  0.00    +0.282 C 
ATOM      3  C   LIG    1       18.883 153.372  27.874  0.00  0.00    +0.201 C 
ATOM      4  C   LIG    1       18.014 153.751  26.676  0.00  0.00    +0.179 C 
ATOM      5  C   LIG    1       16.529 153.572  26.990  0.00  0.00    +0.177 C 
ATOM     22  C   LIG    1       16.169 154.245  28.317  0.00  0.00    +0.178 C 
ENDROOT
BRANCH   5   6
ATOM      6  O   LIG    1       15.752 154.148  25.942  0.00  0.00    -0.386 OA
ATOM      7  H   LIG    1       14.826 154.180  26.239  0.00  0.00    +0.210 HD
ENDBRANCH   5   6
BRANCH   4   8
ATOM      8  O   LIG    1       18.336 152.908  25.569  0.00  0.00    -0.386 OA
ATOM      9  H   LIG    1       19.234 152.564  25.716  0.00  0.00    +0.210 HD
ENDBRANCH   4   8
BRANCH   3  10
ATOM     10  O   LIG    1       20.223 153.807  27.646  0.00  0.00    -0.384 OA
ATOM     11  H   LIG    1       20.211 154.772  27.535  0.00  0.00    +0.210 HD
ENDBRANCH   3  10
BRANCH   2  12
ATOM     12  O   LIG    1       19.145 153.519  30.247  0.00  0.00    -0.345 OA
BRANCH  12  13
ATOM     13  C   LIG    1       19.308 154.492  31.267  0.00  0.00    +0.190 C 
BRANCH  13  14
ATOM     14  C   LIG    1       20.745 154.526  31.675  0.00  0.00    +0.001 C 
ATOM     15  C   LIG    1       21.405 155.661  31.954  0.00  0.00    +0.006 C 
BRANCH  15  16
ATOM     16  C   LIG    1       22.815 155.742  32.373  0.00  0.00    -0.025 A 
ATOM     17  C   LIG    1       23.197 155.185  33.583  0.00  0.00    +0.008 A 
ATOM     18  C   LIG    1       24.532 155.262  33.980  0.00  0.00    +0.001 A 
ATOM     19  C   LIG    1       25.467 155.896  33.163  0.00  0.00    +0.000 A 
ATOM     20  C   LIG    1       25.068 156.453  31.948  0.00  0.00    +0.001 A 
ATOM     21  C   LIG    1       23.733 156.376  31.551  0.00  0.00    +0.008 A 
ENDBRANCH  15  16
ENDBRANCH  13  14
ENDBRANCH  12  13
ENDBRANCH   2  12
BRANCH  22  23
ATOM     23  C   LIG    1       14.718 153.980  28.709  0.00  0.00    +0.197 C 
BRANCH  23  24
ATOM     24  O   LIG    1       14.586 154.175  30.105  0.00  0.00    -0.346 OA
BRANCH  24  25
ATOM     25  C   LIG    1       13.626 153.290  30.673  0.00  0.00    +0.281 C 
ATOM     26  C   LIG    1       14.262 151.912  30.913  0.00  0.00    +0.201 C 
ATOM     27  C   LIG    1       15.215 151.919  32.113  0.00  0.00    +0.178 C 
ATOM     28  C   LIG    1       14.536 152.566  33.321  0.00  0.00    +0.171 C 
ATOM     29  C   LIG    1       13.973 153.933  32.952  0.00  0.00    +0.197 C 
ATOM     36  O   LIG    1       13.050 153.821  31.872  0.00  0.00    -0.346 OA
BRANCH  28  30
ATOM     30  O   LIG    1       15.465 152.684  34.390  0.00  0.00    -0.387 OA
ATOM     31  H   LIG    1       15.955 151.847  34.447  0.00  0.00    +0.210 HD
ENDBRANCH  28  30
BRANCH  27  32
ATOM     32  O   LIG    1       16.392 152.654  31.784  0.00  0.00    -0.386 OA
ATOM     33  H   LIG    1       16.110 153.496  31.389  0.00  0.00    +0.210 HD
ENDBRANCH  27  32
BRANCH  26  34
ATOM     34  O   LIG    1       13.212 150.978  31.149  0.00  0.00    -0.384 OA
ATOM     35  H   LIG    1       12.652 150.936  30.356  0.00  0.00    +0.210 HD
ENDBRANCH  26  34
ENDBRANCH  24  25
ENDBRANCH  23  24
ENDBRANCH  22  23
TORSDOF 13
ENDMDL
MODEL 6
REMARK VINA RESULT:      -6.8      5.001      8.851
REMARK  Name = 9823887
REMARK                            x       y       z     vdW  Elec       q    Type
REMARK                         _______ _______ _______ _____ _____    ______ ____
ROOT
ATOM      1  O   LIG    1        9.851 141.029  22.190  0.00  0.00    -0.341 OA
ATOM      2  C   LIG    1        8.474 140.864  21.858  0.00  0.00    +0.282 C 
ATOM      3  C   LIG    1        8.057 139.401  22.017  0.00  0.00    +0.201 C 
ATOM      4  C   LIG    1        8.397 138.874  23.410  0.00  0.00    +0.179 C 
ATOM      5  C   LIG    1        9.837 139.211  23.794  0.00  0.00    +0.177 C 
ATOM     22  C   LIG    1       10.131 140.694  23.550  0.00  0.00    +0.178 C 
ENDROOT
BRANCH   5   6
ATOM      6  O   LIG    1       10.041 138.911  25.172  0.00  0.00    -0.386 OA
ATOM      7  H   LIG    1       10.455 139.686  25.590  0.00  0.00    +0.210 HD
ENDBRANCH   5   6
BRANCH   4   8
ATOM      8  O   LIG    1        8.257 137.452  23.427  0.00  0.00    -0.386 OA
ATOM      9  H   LIG    1        8.436 137.131  22.527  0.00  0.00    +0.210 HD
ENDBRANCH   4   8
BRANCH   3  10
ATOM     10  O   LIG    1        6.648 139.313  21.807  0.00  0.00    -0.384 OA
ATOM     11  H   LIG    1        6.204 139.541  22.640  0.00  0.00    +0.210 HD
ENDBRANCH   3  10
BRANCH   2  12
ATOM     12  O   LIG    1        8.258 141.238  20.499  0.00  0.00    -0.345 OA
BRANCH  12  13
ATOM     13  C   LIG    1        9.280 140.734  19.654  0.00  0.00    +0.190 C 
BRANCH  13  14
ATOM     14  C   LIG    1        8.662 140.262  18.378  0.00  0.00    +0.001 C 
ATOM     15  C   LIG    1        8.194 141.093  17.434  0.00  0.00    +0.006 C 
BRANCH  15  16
ATOM     16  C   LIG    1        7.591 140.675  16.157  0.00  0.00    -0.025 A 
ATOM     17  C   LIG    1        6.211 140.627  16.041  0.00  0.00    +0.008 A 
ATOM     18  C   LIG    1        5.641 140.231  14.831  0.00  0.00    +0.001 A 
ATOM     19  C   LIG    1        6.457 139.886  13.754  0.00  0.00    +0.000 A 
ATOM     20  C   LIG    1        7.844 139.939  13.886  0.00  0.00    +0.001 A 
ATOM     21  C   LIG    1        8.415 140.336  15.095  0.00  0.00    +0.008 A 
ENDBRANCH  15  16
ENDBRANCH  13  14
ENDBRANCH  12  13
ENDBRANCH   2  12
BRANCH  22  23
ATOM     23  C   LIG    1       11.595 141.031  23.816  0.00  0.00    +0.197 C 
BRANCH  23  24
ATOM     24  O   LIG    1       11.780 141.163  25.213  0.00  0.00    -0.346 OA
BRANCH  24  25
ATOM     25  C   LIG    1       13.160 141.181  25.564  0.00  0.00    +0.281 C 
ATOM     26  C   LIG    1       13.324 141.638  27.021  0.00  0.00    +0.201 C 
ATOM     27  C   LIG    1       12.912 140.548  28.017  0.00  0.00    +0.178 C 
ATOM     28  C   LIG    1       13.577 139.220  27.649  0.00  0.00    +0.171 C 
ATOM     29  C   LIG    1       13.316 138.875  26.189  0.00  0.00    +0.197 C 
ATOM     36  O   LIG    1       13.789 139.914  25.335  0.00  0.00    -0.346 OA
BRANCH  28  30
ATOM     30  O   LIG    1       13.093 138.188  28.497  0.00  0.00    -0.387 OA
ATOM     31  H   LIG    1       13.595 138.231  29.329  0.00  0.00    +0.210 HD
ENDBRANCH  28  30
BRANCH  27  32
ATOM     32  O   LIG    1       11.494 140.388  27.990  0.00  0.00    -0.386 OA
ATOM     33  H   LIG    1       11.136 141.051  27.375  0.00  0.00    +0.210 HD
ENDBRANCH  27  32
BRANCH  26  34
ATOM     34  O   LIG    1       14.694 141.972  27.227  0.00  0.00    -0.384 OA
ATOM     35  H   LIG    1       14.791 142.935  27.148  0.00  0.00    +0.210 HD
ENDBRANCH  26  34
ENDBRANCH  24  25
ENDBRANCH  23  24
ENDBRANCH  22  23
TORSDOF 13
ENDMDL
MODEL 7
REMARK VINA RESULT:      -6.8      4.173      9.215
REMARK  Name = 9823887
REMARK                            x       y       z     vdW  Elec       q    Type
REMARK                         _______ _______ _______ _____ _____    ______ ____
ROOT
ATOM      1  O   LIG    1       12.167 147.595  31.680  0.00  0.00    -0.341 OA
ATOM      2  C   LIG    1       12.594 148.934  31.915  0.00  0.00    +0.282 C 
ATOM      3  C   LIG    1       12.807 149.174  33.410  0.00  0.00    +0.201 C 
ATOM      4  C   LIG    1       13.755 148.136  34.011  0.00  0.00    +0.179 C 
ATOM      5  C   LIG    1       13.354 146.719  33.603  0.00  0.00    +0.177 C 
ATOM     22  C   LIG    1       13.136 146.629  32.090  0.00  0.00    +0.178 C 
ENDROOT
BRANCH   5   6
ATOM      6  O   LIG    1       14.382 145.809  33.986  0.00  0.00    -0.386 OA
ATOM      7  H   LIG    1       15.239 146.229  33.799  0.00  0.00    +0.210 HD
ENDBRANCH   5   6
BRANCH   4   8
ATOM      8  O   LIG    1       13.706 148.216  35.436  0.00  0.00    -0.386 OA
ATOM      9  H   LIG    1       14.390 148.848  35.716  0.00  0.00    +0.210 HD
ENDBRANCH   4   8
BRANCH   3  10
ATOM     10  O   LIG    1       13.363 150.478  33.579  0.00  0.00    -0.384 OA
ATOM     11  H   LIG    1       13.824 150.717  32.758  0.00  0.00    +0.210 HD
ENDBRANCH   3  10
BRANCH   2  12
ATOM     12  O   LIG    1       11.596 149.846  31.461  0.00  0.00    -0.345 OA
BRANCH  12  13
ATOM     13  C   LIG    1       10.854 149.304  30.380  0.00  0.00    +0.190 C 
BRANCH  13  14
ATOM     14  C   LIG    1        9.557 150.038  30.270  0.00  0.00    +0.001 C 
ATOM     15  C   LIG    1        9.458 151.298  29.820  0.00  0.00    +0.006 C 
BRANCH  15  16
ATOM     16  C   LIG    1        8.202 152.055  29.681  0.00  0.00    -0.025 A 
ATOM     17  C   LIG    1        8.215 153.430  29.850  0.00  0.00    +0.008 A 
ATOM     18  C   LIG    1        7.026 154.146  29.718  0.00  0.00    +0.001 A 
ATOM     19  C   LIG    1        5.838 153.478  29.420  0.00  0.00    +0.000 A 
ATOM     20  C   LIG    1        5.840 152.093  29.254  0.00  0.00    +0.001 A 
ATOM     21  C   LIG    1        7.030 151.377  29.386  0.00  0.00    +0.008 A 
ENDBRANCH  15  16
ENDBRANCH  13  14
ENDBRANCH  12  13
ENDBRANCH   2  12
BRANCH  22  23
ATOM     23  C   LIG    1       12.622 145.254  31.674  0.00  0.00    +0.197 C 
BRANCH  23  24
ATOM     24  O   LIG    1       13.412 144.787  30.595  0.00  0.00    -0.346 OA
BRANCH  24  25
ATOM     25  C   LIG    1       12.722 144.887  29.354  0.00  0.00    +0.281 C 
ATOM     26  C   LIG    1       13.242 146.096  28.562  0.00  0.00    +0.201 C 
ATOM     27  C   LIG    1       14.630 145.840  27.964  0.00  0.00    +0.178 C 
ATOM     28  C   LIG    1       14.647 144.498  27.230  0.00  0.00    +0.171 C 
ATOM     29  C   LIG    1       14.132 143.385  28.134  0.00  0.00    +0.197 C 
ATOM     36  O   LIG    1       12.814 143.679  28.590  0.00  0.00    -0.346 OA
BRANCH  28  30
ATOM     30  O   LIG    1       15.965 144.208  26.787  0.00  0.00    -0.387 OA
ATOM     31  H   LIG    1       16.265 143.412  27.260  0.00  0.00    +0.210 HD
ENDBRANCH  28  30
BRANCH  27  32
ATOM     32  O   LIG    1       15.603 145.820  29.006  0.00  0.00    -0.386 OA
ATOM     33  H   LIG    1       15.502 146.641  29.518  0.00  0.00    +0.210 HD
ENDBRANCH  27  32
BRANCH  26  34
ATOM     34  O   LIG    1       12.318 146.367  27.512  0.00  0.00    -0.384 OA
ATOM     35  H   LIG    1       12.465 145.723  26.799  0.00  0.00    +0.210 HD
ENDBRANCH  26  34
ENDBRANCH  24  25
ENDBRANCH  23  24
ENDBRANCH  22  23
TORSDOF 13
ENDMDL
MODEL 8
REMARK VINA RESULT:      -6.7     20.373     23.129
REMARK  Name = 9823887
REMARK                            x       y       z     vdW  Elec       q    Type
REMARK                         _______ _______ _______ _____ _____    ______ ____
ROOT
ATOM      1  O   LIG    1       23.156 138.584   8.956  0.00  0.00    -0.341 OA
ATOM      2  C   LIG    1       22.365 137.713   9.762  0.00  0.00    +0.282 C 
ATOM      3  C   LIG    1       21.029 138.371  10.109  0.00  0.00    +0.201 C 
ATOM      4  C   LIG    1       20.298 138.841   8.852  0.00  0.00    +0.179 C 
ATOM      5  C   LIG    1       21.226 139.638   7.937  0.00  0.00    +0.177 C 
ATOM     22  C   LIG    1       22.538 138.884   7.704  0.00  0.00    +0.178 C 
ENDROOT
BRANCH   5   6
ATOM      6  O   LIG    1       20.580 139.858   6.685  0.00  0.00    -0.386 OA
ATOM      7  H   LIG    1       20.331 138.991   6.320  0.00  0.00    +0.210 HD
ENDBRANCH   5   6
BRANCH   4   8
ATOM      8  O   LIG    1       19.210 139.689   9.224  0.00  0.00    -0.386 OA
ATOM      9  H   LIG    1       18.549 139.135   9.673  0.00  0.00    +0.210 HD
ENDBRANCH   4   8
BRANCH   3  10
ATOM     10  O   LIG    1       20.224 137.413  10.795  0.00  0.00    -0.384 OA
ATOM     11  H   LIG    1       19.292 137.607  10.601  0.00  0.00    +0.210 HD
ENDBRANCH   3  10
BRANCH   2  12
ATOM     12  O   LIG    1       23.048 137.433  10.982  0.00  0.00    -0.345 OA
BRANCH  12  13
ATOM     13  C   LIG    1       23.301 138.619  11.717  0.00  0.00    +0.190 C 
BRANCH  13  14
ATOM     14  C   LIG    1       24.779 138.796  11.853  0.00  0.00    +0.001 C 
ATOM     15  C   LIG    1       25.354 139.433  12.885  0.00  0.00    +0.006 C 
BRANCH  15  16
ATOM     16  C   LIG    1       26.804 139.619  13.067  0.00  0.00    -0.025 A 
ATOM     17  C   LIG    1       27.644 138.519  12.995  0.00  0.00    +0.008 A 
ATOM     18  C   LIG    1       29.016 138.695  13.168  0.00  0.00    +0.001 A 
ATOM     19  C   LIG    1       29.532 139.968  13.412  0.00  0.00    +0.000 A 
ATOM     20  C   LIG    1       28.674 141.065  13.483  0.00  0.00    +0.001 A 
ATOM     21  C   LIG    1       27.301 140.889  13.310  0.00  0.00    +0.008 A 
ENDBRANCH  15  16
ENDBRANCH  13  14
ENDBRANCH  12  13
ENDBRANCH   2  12
BRANCH  22  23
ATOM     23  C   LIG    1       23.528 139.711   6.888  0.00  0.00    +0.197 C 
BRANCH  23  24
ATOM     24  O   LIG    1       23.232 141.083   7.077  0.00  0.00    -0.346 OA
BRANCH  24  25
ATOM     25  C   LIG    1       23.914 141.904   6.135  0.00  0.00    +0.281 C 
ATOM     26  C   LIG    1       23.035 142.117   4.893  0.00  0.00    +0.201 C 
ATOM     27  C   LIG    1       21.883 143.091   5.163  0.00  0.00    +0.178 C 
ATOM     28  C   LIG    1       22.411 144.358   5.838  0.00  0.00    +0.171 C 
ATOM     29  C   LIG    1       23.243 144.005   7.065  0.00  0.00    +0.197 C 
ATOM     36  O   LIG    1       24.326 143.150   6.709  0.00  0.00    -0.346 OA
BRANCH  28  30
ATOM     30  O   LIG    1       21.326 145.200   6.200  0.00  0.00    -0.387 OA
ATOM     31  H   LIG    1       20.842 144.762   6.921  0.00  0.00    +0.210 HD
ENDBRANCH  28  30
BRANCH  27  32
ATOM     32  O   LIG    1       20.921 142.470   6.014  0.00  0.00    -0.386 OA
ATOM     33  H   LIG    1       20.225 143.124   6.196  0.00  0.00    +0.210 HD
ENDBRANCH  27  32
BRANCH  26  34
ATOM     34  O   LIG    1       23.859 142.637   3.853  0.00  0.00    -0.384 OA
ATOM     35  H   LIG    1       24.777 142.368   4.024  0.00  0.00    +0.210 HD
ENDBRANCH  26  34
ENDBRANCH  24  25
ENDBRANCH  23  24
ENDBRANCH  22  23
TORSDOF 13
ENDMDL
MODEL 9
REMARK VINA RESULT:      -6.6      5.300      9.576
REMARK  Name = 9823887
REMARK                            x       y       z     vdW  Elec       q    Type
REMARK                         _______ _______ _______ _____ _____    ______ ____
ROOT
ATOM      1  O   LIG    1       10.887 147.153  31.176  0.00  0.00    -0.341 OA
ATOM      2  C   LIG    1       10.850 147.057  29.754  0.00  0.00    +0.282 C 
ATOM      3  C   LIG    1       12.268 146.992  29.185  0.00  0.00    +0.201 C 
ATOM      4  C   LIG    1       13.077 145.870  29.834  0.00  0.00    +0.179 C 
ATOM      5  C   LIG    1       12.962 145.913  31.357  0.00  0.00    +0.177 C 
ATOM     22  C   LIG    1       11.496 146.015  31.788  0.00  0.00    +0.178 C 
ENDROOT
BRANCH   5   6
ATOM      6  O   LIG    1       13.533 144.729  31.908  0.00  0.00    -0.386 OA
ATOM      7  H   LIG    1       13.242 143.975  31.365  0.00  0.00    +0.210 HD
ENDBRANCH   5   6
BRANCH   4   8
ATOM      8  O   LIG    1       14.456 146.019  29.492  0.00  0.00    -0.386 OA
ATOM      9  H   LIG    1       14.601 146.954  29.266  0.00  0.00    +0.210 HD
ENDBRANCH   4   8
BRANCH   3  10
ATOM     10  O   LIG    1       12.175 146.759  27.780  0.00  0.00    -0.384 OA
ATOM     11  H   LIG    1       13.064 146.856  27.399  0.00  0.00    +0.210 HD
ENDBRANCH   3  10
BRANCH   2  12
ATOM     12  O   LIG    1       10.209 148.208  29.209  0.00  0.00    -0.345 OA
BRANCH  12  13
ATOM     13  C   LIG    1       10.660 149.397  29.837  0.00  0.00    +0.190 C 
BRANCH  13  14
ATOM     14  C   LIG    1        9.788 150.532  29.404  0.00  0.00    +0.001 C 
ATOM     15  C   LIG    1        8.952 151.177  30.231  0.00  0.00    +0.006 C 
BRANCH  15  16
ATOM     16  C   LIG    1        8.086 152.307  29.853  0.00  0.00    -0.025 A 
ATOM     17  C   LIG    1        8.564 153.602  29.984  0.00  0.00    +0.008 A 
ATOM     18  C   LIG    1        7.744 154.671  29.625  0.00  0.00    +0.001 A 
ATOM     19  C   LIG    1        6.458 154.433  29.141  0.00  0.00    +0.000 A 
ATOM     20  C   LIG    1        5.991 153.125  29.015  0.00  0.00    +0.001 A 
ATOM     21  C   LIG    1        6.811 152.055  29.373  0.00  0.00    +0.008 A 
ENDBRANCH  15  16
ENDBRANCH  13  14
ENDBRANCH  12  13
ENDBRANCH   2  12
BRANCH  22  23
ATOM     23  C   LIG    1       11.362 146.177  33.299  0.00  0.00    +0.197 C 
BRANCH  23  24
ATOM     24  O   LIG    1       12.280 147.164  33.730  0.00  0.00    -0.346 OA
BRANCH  24  25
ATOM     25  C   LIG    1       12.731 146.922  35.059  0.00  0.00    +0.281 C 
ATOM     26  C   LIG    1       14.170 146.382  35.032  0.00  0.00    +0.201 C 
ATOM     27  C   LIG    1       15.191 147.477  34.705  0.00  0.00    +0.178 C 
ATOM     28  C   LIG    1       14.949 148.703  35.587  0.00  0.00    +0.171 C 
ATOM     29  C   LIG    1       13.494 149.147  35.502  0.00  0.00    +0.197 C 
ATOM     36  O   LIG    1       12.621 148.087  35.884  0.00  0.00    -0.346 OA
BRANCH  28  30
ATOM     30  O   LIG    1       15.814 149.759  35.193  0.00  0.00    -0.387 OA
ATOM     31  H   LIG    1       16.618 149.698  35.737  0.00  0.00    +0.210 HD
ENDBRANCH  28  30
BRANCH  27  32
ATOM     32  O   LIG    1       15.067 147.851  33.334  0.00  0.00    -0.386 OA
ATOM     33  H   LIG    1       15.943 148.146  33.031  0.00  0.00    +0.210 HD
ENDBRANCH  27  32
BRANCH  26  34
ATOM     34  O   LIG    1       14.459 145.835  36.316  0.00  0.00    -0.384 OA
ATOM     35  H   LIG    1       13.935 145.024  36.431  0.00  0.00    +0.210 HD
ENDBRANCH  26  34
ENDBRANCH  24  25
ENDBRANCH  23  24
ENDBRANCH  22  23
TORSDOF 13
ENDMDL
